version 3
run Base-0-20250724-12:22:58-64060
attr configname Base
attr datetime 20250724-12:22:58
attr datetimef 20250724-122258
attr experiment Base
attr inifile ini/omnetpp.ini
attr iterationvars $n=5
attr iterationvarsd n=5
attr iterationvarsf n=5-
attr measurement $n=5
attr network csma_ca.CsmaCaNetwork
attr processid 64060
attr repetition 0
attr replication #0
attr resultdir results
attr runnumber 0
attr seedset 0
itervar n 5
config description "기본: 5 노드, 랜덤 UDP 트래픽"
config **.numNodes 5
config *.host[*].numUdpApps 1
config *.host[*].udpApp[0].typename UdpBasicApp
config *.host[*].udpApp[0].destAddresses "\"host[0..-1]\""
config *.host[*].udpApp[0].messageLength 1000B
config *.host[*].udpApp[0].sendInterval exponential(1s)
config network csma_ca.CsmaCaNetwork
config ned-path /home/kimdawoon/study/workspace/research/inet/src;/home/kimdawoon/study/workspace/research/project_smartCharging_macLayer_improvement/csma_ca_example/ned
config load-libs /home/kimdawoon/study/workspace/research/inet/out/clang-release/src/INET
config sim-time-limit 60s
config output-scalar-file results/scalars.sca
config output-vector-file results/vectors.vec
config **.radioMedium.backgroundNoise.power -110dBm

par CsmaCaNetwork.radioMedium.propagation typename "\"inet.physicallayer.wireless.common.propagation.ConstantSpeedPropagation\""
par CsmaCaNetwork.radioMedium.propagation propagationSpeed 2.99792e+08mps
attr unit mps
par CsmaCaNetwork.radioMedium.propagation ignoreMovementDuringTransmission true
par CsmaCaNetwork.radioMedium.propagation ignoreMovementDuringPropagation true
par CsmaCaNetwork.radioMedium.propagation ignoreMovementDuringReception true
scalar CsmaCaNetwork.radioMedium.propagation "Arrival computation count" 3000
par CsmaCaNetwork.radioMedium.analogModel typename "\"inet.physicallayer.wireless.common.analogmodel.packetlevel.ScalarAnalogModel\""
par CsmaCaNetwork.radioMedium.analogModel ignorePartialInterference false
par CsmaCaNetwork.radioMedium.backgroundNoise typename "\"inet.physicallayer.wireless.common.backgroundnoise.IsotropicScalarBackgroundNoise\""
par CsmaCaNetwork.radioMedium.backgroundNoise power -110dBm
attr unit dBm
par CsmaCaNetwork.radioMedium.backgroundNoise bandwidth "nan Hz"
attr unit Hz
par CsmaCaNetwork.radioMedium.pathLoss typename "\"inet.physicallayer.wireless.common.pathloss.FreeSpacePathLoss\""
par CsmaCaNetwork.radioMedium.pathLoss alpha 2
par CsmaCaNetwork.radioMedium.pathLoss systemLoss 0dB
attr unit dB
par CsmaCaNetwork.radioMedium.mediumLimitCache typename "\"inet.physicallayer.wireless.common.medium.MediumLimitCache\""
par CsmaCaNetwork.radioMedium.mediumLimitCache centerFrequency "nan Hz"
attr unit Hz
par CsmaCaNetwork.radioMedium.mediumLimitCache maxSpeed "nan mps"
attr unit mps
par CsmaCaNetwork.radioMedium.mediumLimitCache maxTransmissionPower "nan W"
attr unit W
par CsmaCaNetwork.radioMedium.mediumLimitCache minInterferencePower "nan dBm"
attr unit dBm
par CsmaCaNetwork.radioMedium.mediumLimitCache minReceptionPower "nan dBm"
attr unit dBm
par CsmaCaNetwork.radioMedium.mediumLimitCache maxAntennaGain 0dB
attr unit dB
par CsmaCaNetwork.radioMedium.mediumLimitCache minInterferenceTime 1e-12s
attr unit s
par CsmaCaNetwork.radioMedium.mediumLimitCache maxTransmissionDuration 0.01s
attr unit s
par CsmaCaNetwork.radioMedium.mediumLimitCache maxCommunicationRange "nan m"
attr unit m
par CsmaCaNetwork.radioMedium.mediumLimitCache maxInterferenceRange "nan m"
attr unit m
par CsmaCaNetwork.radioMedium.communicationCache typename "\"inet.physicallayer.wireless.common.communicationcache.VectorCommunicationCache\""
par CsmaCaNetwork.radioMedium typename "\"inet.physicallayer.wireless.apsk.packetlevel.ApskScalarRadioMedium\""
par CsmaCaNetwork.radioMedium physicalEnvironmentModule "\"physicalEnvironment\""
par CsmaCaNetwork.radioMedium signalAnalogRepresentation "\"scalar\""
attr enum unitDisk,scalar,dimensional
par CsmaCaNetwork.radioMedium rangeFilter "\"\""
par CsmaCaNetwork.radioMedium radioModeFilter false
par CsmaCaNetwork.radioMedium listeningFilter false
par CsmaCaNetwork.radioMedium macAddressFilter false
par CsmaCaNetwork.radioMedium recordTransmissionLog false
par CsmaCaNetwork.radioMedium recordReceptionLog false
scalar CsmaCaNetwork.radioMedium "transmission count" 750
scalar CsmaCaNetwork.radioMedium "signal send count" 3000
scalar CsmaCaNetwork.radioMedium "reception computation count" 3000
scalar CsmaCaNetwork.radioMedium "interference computation count" 9760
scalar CsmaCaNetwork.radioMedium "reception decision computation count" 3000
scalar CsmaCaNetwork.radioMedium "listening decision computation count" 3760
scalar CsmaCaNetwork.radioMedium "reception cache hit" 85.714285714286
attr unit %
scalar CsmaCaNetwork.radioMedium "interference cache hit" 66.666666666667
attr unit %
scalar CsmaCaNetwork.radioMedium "noise cache hit" 0
attr unit %
scalar CsmaCaNetwork.radioMedium "snir cache hit" 50
attr unit %
scalar CsmaCaNetwork.radioMedium "reception decision cache hit" 50
attr unit %
scalar CsmaCaNetwork.radioMedium "reception result cache hit" 0
attr unit %
par CsmaCaNetwork.host[0].radioIn[0].channel typename "\"ned.IdealChannel\""
par CsmaCaNetwork.host[0].mobility typename "\"inet.mobility.static.StationaryMobility\""
par CsmaCaNetwork.host[0].mobility subjectModule "\"^\""
par CsmaCaNetwork.host[0].mobility coordinateSystemModule "\"\""
par CsmaCaNetwork.host[0].mobility displayStringTextFormat "\"p: %p\\nv: %v\""
attr mutable ""
par CsmaCaNetwork.host[0].mobility updateDisplayString true
par CsmaCaNetwork.host[0].mobility constraintAreaMinX "-inf m"
attr unit m
par CsmaCaNetwork.host[0].mobility constraintAreaMinY "-inf m"
attr unit m
par CsmaCaNetwork.host[0].mobility constraintAreaMinZ "-inf m"
attr unit m
par CsmaCaNetwork.host[0].mobility constraintAreaMaxX "inf m"
attr unit m
par CsmaCaNetwork.host[0].mobility constraintAreaMaxY "inf m"
attr unit m
par CsmaCaNetwork.host[0].mobility constraintAreaMaxZ "inf m"
attr unit m
par CsmaCaNetwork.host[0].mobility initialX "nan m"
attr unit m
par CsmaCaNetwork.host[0].mobility initialY "nan m"
attr unit m
par CsmaCaNetwork.host[0].mobility initialZ 0m
attr unit m
par CsmaCaNetwork.host[0].mobility initialLatitude "nan deg"
attr unit deg
par CsmaCaNetwork.host[0].mobility initialLongitude "nan deg"
attr unit deg
par CsmaCaNetwork.host[0].mobility initialAltitude 0m
attr unit m
par CsmaCaNetwork.host[0].mobility initialHeading 0deg
attr unit deg
par CsmaCaNetwork.host[0].mobility initialElevation 0deg
attr unit deg
par CsmaCaNetwork.host[0].mobility initialBank 0deg
attr unit deg
par CsmaCaNetwork.host[0].mobility initFromDisplayString true
par CsmaCaNetwork.host[0].mobility updateFromDisplayString true
par CsmaCaNetwork.host[0].interfaceTable typename "\"inet.networklayer.common.InterfaceTable\""
par CsmaCaNetwork.host[0].interfaceTable displayAddresses false
par CsmaCaNetwork.host[0].cb typename "\"inet.common.MessageDispatcher\""
par CsmaCaNetwork.host[0].cb displayStringTextFormat "\"processed %p pk (%l)\""
par CsmaCaNetwork.host[0].cb forwardServiceRegistration true
par CsmaCaNetwork.host[0].cb forwardProtocolRegistration true
par CsmaCaNetwork.host[0].bl typename "\"inet.common.MessageDispatcher\""
par CsmaCaNetwork.host[0].bl displayStringTextFormat "\"processed %p pk (%l)\""
par CsmaCaNetwork.host[0].bl forwardServiceRegistration true
par CsmaCaNetwork.host[0].bl forwardProtocolRegistration true
par CsmaCaNetwork.host[0].li typename "\"inet.common.MessageDispatcher\""
par CsmaCaNetwork.host[0].li displayStringTextFormat "\"processed %p pk (%l)\""
par CsmaCaNetwork.host[0].li forwardServiceRegistration true
par CsmaCaNetwork.host[0].li forwardProtocolRegistration true
par CsmaCaNetwork.host[0].lo[0].upperLayerIn.channel typename "\"ned.IdealChannel\""
par CsmaCaNetwork.host[0].lo[0].lo.upperLayerOut.channel typename "\"ned.IdealChannel\""
par CsmaCaNetwork.host[0].lo[0].lo typename "\"inet.linklayer.loopback.Loopback\""
par CsmaCaNetwork.host[0].lo[0].lo interfaceTableModule "\"CsmaCaNetwork.host[0].interfaceTable\""
par CsmaCaNetwork.host[0].lo[0].lo mtu 4470B
attr unit B
scalar CsmaCaNetwork.host[0].lo[0].lo rcvdPkFromHl:count 0
attr interpolationmode none
attr recordingmode count
attr source packetReceivedFromUpper
attr title "packets received from higher layer, count"
scalar CsmaCaNetwork.host[0].lo[0].lo rcvdPkFromHl:sum(packetBytes) 0
attr interpolationmode none
attr recordingmode sum(packetBytes)
attr source packetReceivedFromUpper
attr title "packets received from higher layer, sum(packetBytes)"
scalar CsmaCaNetwork.host[0].lo[0].lo passedUpPk:count 0
attr interpolationmode none
attr recordingmode count
attr source packetSentToUpper
attr title "packets passed to higher layer, count"
scalar CsmaCaNetwork.host[0].lo[0].lo passedUpPk:sum(packetBytes) 0
attr interpolationmode none
attr recordingmode sum(packetBytes)
attr source packetSentToUpper
attr title "packets passed to higher layer, sum(packetBytes)"
par CsmaCaNetwork.host[0].lo[0] typename "\"inet.linklayer.loopback.LoopbackInterface\""
par CsmaCaNetwork.host[0].lo[0] displayStringTextFormat "\"%a (%i)\\n%m\""
par CsmaCaNetwork.host[0].lo[0] recordPcap false
par CsmaCaNetwork.host[0].lo[0] numPcapRecorders 0
par CsmaCaNetwork.host[0].lo[0] interfaceTableModule "\"CsmaCaNetwork.host[0].interfaceTable\""
scalar CsmaCaNetwork.host[0].lo[0] packetDropInterfaceDown:count 0
attr interpolationmode none
attr recordingmode count
attr source packetDropReasonIsInterfaceDown(packetDropped)
attr title "packet drops: interface down, count"
scalar CsmaCaNetwork.host[0].lo[0] packetDropInterfaceDown:sum(packetBytes) 0
attr interpolationmode none
attr recordingmode sum(packetBytes)
attr source packetDropReasonIsInterfaceDown(packetDropped)
attr title "packet drops: interface down, sum(packetBytes)"
scalar CsmaCaNetwork.host[0].lo[0] packetDropNoCarrier:count 0
attr interpolationmode none
attr recordingmode count
attr source packetDropReasonIsNoCarrier(packetDropped)
attr title "packet drops: no carrier, count"
scalar CsmaCaNetwork.host[0].lo[0] packetDropNoCarrier:sum(packetBytes) 0
attr interpolationmode none
attr recordingmode sum(packetBytes)
attr source packetDropReasonIsNoCarrier(packetDropped)
attr title "packet drops: no carrier, sum(packetBytes)"
par CsmaCaNetwork.host[0].wlan[0].radioIn.channel typename "\"ned.IdealChannel\""
par CsmaCaNetwork.host[0].wlan[0].llc.upperLayerOut.channel typename "\"ned.IdealChannel\""
par CsmaCaNetwork.host[0].wlan[0].upperLayerIn.channel typename "\"ned.IdealChannel\""
par CsmaCaNetwork.host[0].wlan[0].mib typename "\"inet.linklayer.ieee80211.mib.Ieee80211Mib\""
par CsmaCaNetwork.host[0].wlan[0].llc typename "\"inet.linklayer.ieee80211.llc.Ieee80211LlcLpd\""
par CsmaCaNetwork.host[0].wlan[0].llc registerProtocol false
par CsmaCaNetwork.host[0].wlan[0].agent typename "\"inet.linklayer.ieee80211.mgmt.Ieee80211AgentSta\""
par CsmaCaNetwork.host[0].wlan[0].agent interfaceTableModule "\"CsmaCaNetwork.host[0].interfaceTable\""
par CsmaCaNetwork.host[0].wlan[0].agent mibModule "\"CsmaCaNetwork.host[0].wlan[0].mib\""
par CsmaCaNetwork.host[0].wlan[0].agent activeScan true
par CsmaCaNetwork.host[0].wlan[0].agent channelsToScan "\"\""
par CsmaCaNetwork.host[0].wlan[0].agent probeDelay 0.1s
attr unit s
par CsmaCaNetwork.host[0].wlan[0].agent minChannelTime 0.15s
attr unit s
par CsmaCaNetwork.host[0].wlan[0].agent maxChannelTime 0.3s
attr unit s
par CsmaCaNetwork.host[0].wlan[0].agent authenticationTimeout 5s
attr unit s
par CsmaCaNetwork.host[0].wlan[0].agent associationTimeout 5s
attr unit s
par CsmaCaNetwork.host[0].wlan[0].agent startingTime -1s
attr unit s
par CsmaCaNetwork.host[0].wlan[0].agent defaultSsid "\"SSID\""
scalar CsmaCaNetwork.host[0].wlan[0].agent dropConfirm:count 149
attr recordingmode count
attr title "dropped confirms, count"
scalar CsmaCaNetwork.host[0].wlan[0].agent acceptConfirm:count 0
attr recordingmode count
attr title "accepted confirms, count"
scalar CsmaCaNetwork.host[0].wlan[0].agent sentRequest:count 150
attr recordingmode count
attr title "sent requests, count"
par CsmaCaNetwork.host[0].wlan[0].mgmt typename "\"inet.linklayer.ieee80211.mgmt.Ieee80211MgmtSta\""
par CsmaCaNetwork.host[0].wlan[0].mgmt interfaceTableModule "\"CsmaCaNetwork.host[0].interfaceTable\""
par CsmaCaNetwork.host[0].wlan[0].mgmt numChannels 1
par CsmaCaNetwork.host[0].wlan[0].mgmt mibModule "\"CsmaCaNetwork.host[0].wlan[0].mib\""
par CsmaCaNetwork.host[0].wlan[0].mgmt macModule "\"CsmaCaNetwork.host[0].wlan[0].mac\""
par CsmaCaNetwork.host[0].wlan[0].mac.dcf.channelAccess.pendingQueue typename "\"inet.linklayer.ieee80211.mac.queue.PendingQueue\""
par CsmaCaNetwork.host[0].wlan[0].mac.dcf.channelAccess.pendingQueue displayStringTextFormat "\"contains %p pk (%l) pushed %u\\npulled %o removed %r dropped %d\""
par CsmaCaNetwork.host[0].wlan[0].mac.dcf.channelAccess.pendingQueue packetCapacity 100
par CsmaCaNetwork.host[0].wlan[0].mac.dcf.channelAccess.pendingQueue dataCapacity -1b
attr unit b
par CsmaCaNetwork.host[0].wlan[0].mac.dcf.channelAccess.pendingQueue dropperClass "\"inet::queueing::PacketAtCollectionEndDropper\""
par CsmaCaNetwork.host[0].wlan[0].mac.dcf.channelAccess.pendingQueue comparatorClass "\"inet::ieee80211::MgmtOverDataComparator\""
par CsmaCaNetwork.host[0].wlan[0].mac.dcf.channelAccess.pendingQueue bufferModule "\"\""
scalar CsmaCaNetwork.host[0].wlan[0].mac.dcf.channelAccess.pendingQueue queueLength:last 0
attr autoWarmupFilter false
attr interpolationmode sample-hold
attr recordingmode last
attr source "warmup(atomic(constant0(packetPushEnded) + count(packetPushStarted) - count(packetPulled) - count(packetRemoved) - count(packetDropped)))"
attr title "queue length, last"
attr unit pk
scalar CsmaCaNetwork.host[0].wlan[0].mac.dcf.channelAccess.pendingQueue queueLength:max 1
attr autoWarmupFilter false
attr interpolationmode sample-hold
attr recordingmode max
attr source "warmup(atomic(constant0(packetPushEnded) + count(packetPushStarted) - count(packetPulled) - count(packetRemoved) - count(packetDropped)))"
attr title "queue length, max"
attr unit pk
scalar CsmaCaNetwork.host[0].wlan[0].mac.dcf.channelAccess.pendingQueue queueLength:timeavg 0
attr autoWarmupFilter false
attr interpolationmode sample-hold
attr recordingmode timeavg
attr source "warmup(atomic(constant0(packetPushEnded) + count(packetPushStarted) - count(packetPulled) - count(packetRemoved) - count(packetDropped)))"
attr title "queue length, timeavg"
attr unit pk
scalar CsmaCaNetwork.host[0].wlan[0].mac.dcf.channelAccess.pendingQueue queueBitLength:last 0
attr autoWarmupFilter false
attr interpolationmode sample-hold
attr recordingmode last
attr source "warmup(atomic(constant0(packetPushEnded) + sum(packetLength(packetPushStarted)) - sum(packetLength(packetPulled)) - sum(packetLength(packetRemoved)) - sum(packetLength(packetDropped))))"
attr title "queue bit length, last"
attr unit b
scalar CsmaCaNetwork.host[0].wlan[0].mac.dcf.channelAccess.pendingQueue queueBitLength:max 256
attr autoWarmupFilter false
attr interpolationmode sample-hold
attr recordingmode max
attr source "warmup(atomic(constant0(packetPushEnded) + sum(packetLength(packetPushStarted)) - sum(packetLength(packetPulled)) - sum(packetLength(packetRemoved)) - sum(packetLength(packetDropped))))"
attr title "queue bit length, max"
attr unit b
scalar CsmaCaNetwork.host[0].wlan[0].mac.dcf.channelAccess.pendingQueue queueBitLength:timeavg 0
attr autoWarmupFilter false
attr interpolationmode sample-hold
attr recordingmode timeavg
attr source "warmup(atomic(constant0(packetPushEnded) + sum(packetLength(packetPushStarted)) - sum(packetLength(packetPulled)) - sum(packetLength(packetRemoved)) - sum(packetLength(packetDropped))))"
attr title "queue bit length, timeavg"
attr unit b
statistic CsmaCaNetwork.host[0].wlan[0].mac.dcf.channelAccess.pendingQueue queueingTime:histogram
field count 150
field mean 0
field stddev 0
field min 0
field max 0
field sum 0
field sqrsum 0
attr interpolationmode none
attr recordingmode histogram
attr source queueingTime(packetPulled)
attr title "queueing times"
attr unit s
bin	-inf	0
bin	-0.5	0
bin	-0.48	0
bin	-0.46	0
bin	-0.44	0
bin	-0.42	0
bin	-0.4	0
bin	-0.38	0
bin	-0.36	0
bin	-0.34	0
bin	-0.32	0
bin	-0.3	0
bin	-0.28	0
bin	-0.26	0
bin	-0.24	0
bin	-0.22	0
bin	-0.2	0
bin	-0.18	0
bin	-0.16	0
bin	-0.14	0
bin	-0.12	0
bin	-0.1	0
bin	-0.08	0
bin	-0.06	0
bin	-0.04	0
bin	-0.02	0
bin	0	150
bin	0.02	0
bin	0.04	0
bin	0.06	0
bin	0.08	0
bin	0.1	0
bin	0.12	0
bin	0.14	0
bin	0.16	0
bin	0.18	0
bin	0.2	0
bin	0.22	0
bin	0.24	0
bin	0.26	0
bin	0.28	0
bin	0.3	0
bin	0.32	0
bin	0.34	0
bin	0.36	0
bin	0.38	0
bin	0.4	0
bin	0.42	0
bin	0.44	0
bin	0.46	0
bin	0.48	0
bin	0.5	0
scalar CsmaCaNetwork.host[0].wlan[0].mac.dcf.channelAccess.pendingQueue outgoingPackets:count 150
attr recordingmode count
attr source packetPulled
attr title "outgoing packets, count"
attr unit pk
scalar CsmaCaNetwork.host[0].wlan[0].mac.dcf.channelAccess.pendingQueue outgoingPacketLengths:sum 38400
attr interpolationmode none
attr recordingmode sum
attr source packetLength(packetPulled)
attr title "outgoing packet lengths, sum"
attr unit b
statistic CsmaCaNetwork.host[0].wlan[0].mac.dcf.channelAccess.pendingQueue outgoingPacketLengths:histogram
field count 150
field mean 256
field stddev 0
field min 256
field max 256
field sum 38400
field sqrsum 9830400
attr interpolationmode none
attr recordingmode histogram
attr source packetLength(packetPulled)
attr title "outgoing packet lengths"
attr unit b
bin	-inf	0
bin	255	0
bin	256	150
bin	257	0
statistic CsmaCaNetwork.host[0].wlan[0].mac.dcf.channelAccess.pendingQueue flowQueueingTime:histogram
field count 0
field mean -nan
field stddev nan
field min nan
field max nan
field sum 0
field sqrsum 0
attr interpolationmode none
attr recordingmode histogram
attr source queueingTime(demuxFlow(packetPulled))
attr title "flow queueing times"
attr unit s
bin	-inf	0
bin	0	0
bin	1	0
scalar CsmaCaNetwork.host[0].wlan[0].mac.dcf.channelAccess.pendingQueue incomingPackets:count 150
attr recordingmode count
attr source packetPushStarted
attr title "incoming packets, count"
attr unit pk
scalar CsmaCaNetwork.host[0].wlan[0].mac.dcf.channelAccess.pendingQueue incomingPacketLengths:sum 38400
attr interpolationmode none
attr recordingmode sum
attr source packetLength(packetPushStarted)
attr title "incoming packet lengths, sum"
attr unit b
statistic CsmaCaNetwork.host[0].wlan[0].mac.dcf.channelAccess.pendingQueue incomingPacketLengths:histogram
field count 150
field mean 256
field stddev 0
field min 256
field max 256
field sum 38400
field sqrsum 9830400
attr interpolationmode none
attr recordingmode histogram
attr source packetLength(packetPushStarted)
attr title "incoming packet lengths"
attr unit b
bin	-inf	0
bin	255	0
bin	256	150
bin	257	0
scalar CsmaCaNetwork.host[0].wlan[0].mac.dcf.channelAccess.pendingQueue droppedPacketsQueueOverflow:count 0
attr interpolationmode none
attr recordingmode count
attr source packetDropReasonIsQueueOverflow(packetDropped)
attr title "dropped packets: queue overflow, count"
attr unit pk
scalar CsmaCaNetwork.host[0].wlan[0].mac.dcf.channelAccess.pendingQueue droppedPacketLengthsQueueOverflow:sum 0
attr interpolationmode none
attr recordingmode sum
attr source packetLength(packetDropReasonIsQueueOverflow(packetDropped))
attr title "dropped packet lengths: queue overflow, sum"
attr unit b
par CsmaCaNetwork.host[0].wlan[0].mac.dcf.channelAccess.inProgressFrames typename "\"inet.linklayer.ieee80211.mac.queue.InProgressFrames\""
par CsmaCaNetwork.host[0].wlan[0].mac.dcf.channelAccess.inProgressFrames pendingQueueModule "\"^.pendingQueue\""
par CsmaCaNetwork.host[0].wlan[0].mac.dcf.channelAccess.inProgressFrames originatorMacDataServiceModule "\"^.^.originatorMacDataService\""
par CsmaCaNetwork.host[0].wlan[0].mac.dcf.channelAccess.inProgressFrames ackHandlerModule "\"^.^.ackHandler\""
statistic CsmaCaNetwork.host[0].wlan[0].mac.dcf.channelAccess.inProgressFrames queueingTime:histogram
field count 150
field mean 3.8e-05
field stddev 0
field min 3.8e-05
field max 3.8e-05
field sum 0.0057
field sqrsum 2.166e-07
attr interpolationmode none
attr recordingmode histogram
attr source queueingTime(packetDequeued)
attr title "queueing times"
bin	-inf	0
bin	0	150
bin	0.01	0
bin	0.02	0
bin	0.03	0
bin	0.04	0
bin	0.05	0
bin	0.06	0
bin	0.07	0
bin	0.08	0
bin	0.09	0
bin	0.1	0
bin	0.11	0
bin	0.12	0
bin	0.13	0
bin	0.14	0
bin	0.15	0
bin	0.16	0
bin	0.17	0
bin	0.18	0
bin	0.19	0
bin	0.2	0
bin	0.21	0
bin	0.22	0
bin	0.23	0
bin	0.24	0
bin	0.25	0
bin	0.26	0
bin	0.27	0
bin	0.28	0
bin	0.29	0
bin	0.3	0
bin	0.31	0
bin	0.32	0
bin	0.33	0
bin	0.34	0
bin	0.35	0
bin	0.36	0
bin	0.37	0
bin	0.38	0
bin	0.39	0
bin	0.4	0
bin	0.41	0
bin	0.42	0
bin	0.43	0
bin	0.44	0
bin	0.45	0
bin	0.46	0
bin	0.47	0
bin	0.48	0
bin	0.49	0
bin	0.5	0
bin	0.51	0
scalar CsmaCaNetwork.host[0].wlan[0].mac.dcf.channelAccess.inProgressFrames queueLength:max 1
attr autoWarmupFilter false
attr interpolationmode sample-hold
attr recordingmode max
attr source "warmup(count(packetEnqueued) - count(packetDequeued))"
attr title "queue length, max"
scalar CsmaCaNetwork.host[0].wlan[0].mac.dcf.channelAccess.inProgressFrames queueLength:timeavg 9.5e-05
attr autoWarmupFilter false
attr interpolationmode sample-hold
attr recordingmode timeavg
attr source "warmup(count(packetEnqueued) - count(packetDequeued))"
attr title "queue length, timeavg"
par CsmaCaNetwork.host[0].wlan[0].mac.dcf.channelAccess.contention typename "\"inet.linklayer.ieee80211.mac.contention.Contention\""
par CsmaCaNetwork.host[0].wlan[0].mac.dcf.channelAccess.contention initialChannelBusy true
par CsmaCaNetwork.host[0].wlan[0].mac.dcf.channelAccess.contention backoffOptimization true
scalar CsmaCaNetwork.host[0].wlan[0].mac.dcf.channelAccess.contention channelAccessGranted:count 150
attr recordingmode count
attr title "channel access granted, count"
scalar CsmaCaNetwork.host[0].wlan[0].mac.dcf.channelAccess.contention stateChanged:count 3602
attr enum IDLE,DEFER,IFS_AND_BACKOFF
attr interpolationmode none
attr recordingmode count
attr title "contention state changed, count"
attr type enum
par CsmaCaNetwork.host[0].wlan[0].mac.dcf.channelAccess typename "\"inet.linklayer.ieee80211.mac.channelaccess.Dcaf\""
par CsmaCaNetwork.host[0].wlan[0].mac.dcf.channelAccess difsn -1
par CsmaCaNetwork.host[0].wlan[0].mac.dcf.channelAccess cwMin -1
par CsmaCaNetwork.host[0].wlan[0].mac.dcf.channelAccess cwMax -1
par CsmaCaNetwork.host[0].wlan[0].mac.dcf.channelAccess rxModule "\"^.^.rx\""
scalar CsmaCaNetwork.host[0].wlan[0].mac.dcf.channelAccess channelOwnershipChanged:count 300
attr interpolationmode sample-hold
attr recordingmode count
attr title "channel ownership, count"
par CsmaCaNetwork.host[0].wlan[0].mac.dcf.originatorMacDataService.fragmentationPolicy typename "\"inet.linklayer.ieee80211.mac.fragmentation.BasicFragmentationPolicy\""
par CsmaCaNetwork.host[0].wlan[0].mac.dcf.originatorMacDataService.fragmentationPolicy fragmentationThreshold 1500B
attr unit B
par CsmaCaNetwork.host[0].wlan[0].mac.dcf.originatorMacDataService typename "\"inet.linklayer.ieee80211.mac.originator.OriginatorMacDataService\""
scalar CsmaCaNetwork.host[0].wlan[0].mac.dcf.originatorMacDataService packetAggregated:count 0
attr recordingmode count
attr title "packets aggregated, count"
scalar CsmaCaNetwork.host[0].wlan[0].mac.dcf.originatorMacDataService packetFragmented:count 0
attr recordingmode count
attr title "packets fragmented, count"
par CsmaCaNetwork.host[0].wlan[0].mac.dcf.recipientMacDataService typename "\"inet.linklayer.ieee80211.mac.recipient.RecipientMacDataService\""
scalar CsmaCaNetwork.host[0].wlan[0].mac.dcf.recipientMacDataService packetDeaggregated:count 0
attr recordingmode count
attr title "packets deaggregated, count"
scalar CsmaCaNetwork.host[0].wlan[0].mac.dcf.recipientMacDataService packetDefragmented:count 600
attr recordingmode count
attr title "packets defragmented, count"
scalar CsmaCaNetwork.host[0].wlan[0].mac.dcf.recipientMacDataService packetDropDuplicateDetected:count 0
attr interpolationmode none
attr recordingmode count
attr source packetDropReasonIsDuplicateDetected(packetDropped)
attr title "packet drops: duplicate detected, count"
scalar CsmaCaNetwork.host[0].wlan[0].mac.dcf.recipientMacDataService packetDropDuplicateDetected:sum(packetBytes) 0
attr interpolationmode none
attr recordingmode sum(packetBytes)
attr source packetDropReasonIsDuplicateDetected(packetDropped)
attr title "packet drops: duplicate detected, sum(packetBytes)"
par CsmaCaNetwork.host[0].wlan[0].mac.dcf.rateSelection typename "\"inet.linklayer.ieee80211.mac.rateselection.RateSelection\""
par CsmaCaNetwork.host[0].wlan[0].mac.dcf.rateSelection rateControlModule "\"^.rateControl\""
par CsmaCaNetwork.host[0].wlan[0].mac.dcf.rateSelection multicastFrameBitrate -1bps
attr unit bps
par CsmaCaNetwork.host[0].wlan[0].mac.dcf.rateSelection responseAckFrameBitrate -1bps
attr unit bps
par CsmaCaNetwork.host[0].wlan[0].mac.dcf.rateSelection responseCtsFrameBitrate -1bps
attr unit bps
par CsmaCaNetwork.host[0].wlan[0].mac.dcf.rateSelection dataFrameBitrate -1bps
attr unit bps
par CsmaCaNetwork.host[0].wlan[0].mac.dcf.rateSelection dataFrameBandwidth "nan Hz"
attr unit Hz
par CsmaCaNetwork.host[0].wlan[0].mac.dcf.rateSelection dataFrameNumSpatialStreams -1
par CsmaCaNetwork.host[0].wlan[0].mac.dcf.rateSelection mgmtFrameBitrate -1bps
attr unit bps
par CsmaCaNetwork.host[0].wlan[0].mac.dcf.rateSelection controlFrameBitrate -1bps
attr unit bps
par CsmaCaNetwork.host[0].wlan[0].mac.dcf.recoveryProcedure typename "\"inet.linklayer.ieee80211.mac.originator.NonQosRecoveryProcedure\""
par CsmaCaNetwork.host[0].wlan[0].mac.dcf.recoveryProcedure cwCalculatorModule "\"^.channelAccess\""
par CsmaCaNetwork.host[0].wlan[0].mac.dcf.recoveryProcedure rtsPolicyModule "\"^.rtsPolicy\""
par CsmaCaNetwork.host[0].wlan[0].mac.dcf.recoveryProcedure shortRetryLimit 7
par CsmaCaNetwork.host[0].wlan[0].mac.dcf.recoveryProcedure longRetryLimit 4
scalar CsmaCaNetwork.host[0].wlan[0].mac.dcf.recoveryProcedure retryLimitReached:count 0
attr recordingmode count
attr title "retry limit reached, count"
par CsmaCaNetwork.host[0].wlan[0].mac.dcf.originatorProtectionMechanism typename "\"inet.linklayer.ieee80211.mac.protectionmechanism.OriginatorProtectionMechanism\""
par CsmaCaNetwork.host[0].wlan[0].mac.dcf.originatorProtectionMechanism rateSelectionModule "\"^.rateSelection\""
par CsmaCaNetwork.host[0].wlan[0].mac.dcf.ackHandler typename "\"inet.linklayer.ieee80211.mac.originator.AckHandler\""
par CsmaCaNetwork.host[0].wlan[0].mac.dcf.originatorAckPolicy typename "\"inet.linklayer.ieee80211.mac.originator.OriginatorAckPolicy\""
par CsmaCaNetwork.host[0].wlan[0].mac.dcf.originatorAckPolicy rateSelectionModule "\"^.rateSelection\""
par CsmaCaNetwork.host[0].wlan[0].mac.dcf.originatorAckPolicy ackTimeout -1s
attr unit s
par CsmaCaNetwork.host[0].wlan[0].mac.dcf.recipientAckPolicy typename "\"inet.linklayer.ieee80211.mac.recipient.RecipientAckPolicy\""
par CsmaCaNetwork.host[0].wlan[0].mac.dcf.recipientAckPolicy rateSelectionModule "\"^.rateSelection\""
par CsmaCaNetwork.host[0].wlan[0].mac.dcf.rtsPolicy typename "\"inet.linklayer.ieee80211.mac.originator.RtsPolicy\""
par CsmaCaNetwork.host[0].wlan[0].mac.dcf.rtsPolicy rateSelectionModule "\"^.rateSelection\""
par CsmaCaNetwork.host[0].wlan[0].mac.dcf.rtsPolicy ctsTimeout -1s
attr unit s
par CsmaCaNetwork.host[0].wlan[0].mac.dcf.rtsPolicy rtsThreshold 2346B
attr unit B
par CsmaCaNetwork.host[0].wlan[0].mac.dcf.ctsPolicy typename "\"inet.linklayer.ieee80211.mac.recipient.CtsPolicy\""
par CsmaCaNetwork.host[0].wlan[0].mac.dcf.ctsPolicy rxModule "\"^.^.rx\""
par CsmaCaNetwork.host[0].wlan[0].mac.dcf.ctsPolicy rateSelectionModule "\"^.rateSelection\""
par CsmaCaNetwork.host[0].wlan[0].mac.dcf typename "\"inet.linklayer.ieee80211.mac.coordinationfunction.Dcf\""
par CsmaCaNetwork.host[0].wlan[0].mac.dcf rxModule "\"^.rx\""
par CsmaCaNetwork.host[0].wlan[0].mac.dcf txModule "\"^.tx\""
scalar CsmaCaNetwork.host[0].wlan[0].mac.dcf frameSequenceFinished:count 150
attr recordingmode count
attr title "finished frame sequences, count"
statistic CsmaCaNetwork.host[0].wlan[0].mac.dcf frameSequenceDuration:histogram
field count 150
field mean 3.8e-05
field stddev 0
field min 3.8e-05
field max 3.8e-05
field sum 0.0057
field sqrsum 2.166e-07
attr recordingmode histogram
attr source frameSequenceDuration(frameSequenceFinished)
attr title "frame sequence durations"
bin	-inf	0
bin	0	150
bin	0.01	0
bin	0.02	0
bin	0.03	0
bin	0.04	0
bin	0.05	0
bin	0.06	0
bin	0.07	0
bin	0.08	0
bin	0.09	0
bin	0.1	0
bin	0.11	0
bin	0.12	0
bin	0.13	0
bin	0.14	0
bin	0.15	0
bin	0.16	0
bin	0.17	0
bin	0.18	0
bin	0.19	0
bin	0.2	0
bin	0.21	0
bin	0.22	0
bin	0.23	0
bin	0.24	0
bin	0.25	0
bin	0.26	0
bin	0.27	0
bin	0.28	0
bin	0.29	0
bin	0.3	0
bin	0.31	0
bin	0.32	0
bin	0.33	0
bin	0.34	0
bin	0.35	0
bin	0.36	0
bin	0.37	0
bin	0.38	0
bin	0.39	0
bin	0.4	0
bin	0.41	0
bin	0.42	0
bin	0.43	0
bin	0.44	0
bin	0.45	0
bin	0.46	0
bin	0.47	0
bin	0.48	0
bin	0.49	0
bin	0.5	0
bin	0.51	0
statistic CsmaCaNetwork.host[0].wlan[0].mac.dcf frameSequenceNumPackets:histogram
field count 150
field mean 1
field stddev 0
field min 1
field max 1
field sum 150
field sqrsum 150
attr recordingmode histogram
attr source frameSequenceNumPackets(frameSequenceFinished)
attr title "frame sequences: number of packets"
bin	-inf	0
bin	0	0
bin	1	150
bin	2	0
scalar CsmaCaNetwork.host[0].wlan[0].mac.dcf packetReceivedFromPeer:count 600
attr interpolationmode none
attr recordingmode count
attr title "packets received, count"
scalar CsmaCaNetwork.host[0].wlan[0].mac.dcf packetReceivedFromPeer:sum(packetBytes) 19200
attr interpolationmode none
attr recordingmode sum(packetBytes)
attr title "packets received, sum(packetBytes)"
scalar CsmaCaNetwork.host[0].wlan[0].mac.dcf packetReceivedFromPeerUnicast:count 0
attr interpolationmode none
attr recordingmode count
attr source ieee80211Unicast(packetReceivedFromPeer)
attr title "packets received: unicast, count"
scalar CsmaCaNetwork.host[0].wlan[0].mac.dcf packetReceivedFromPeerUnicast:sum(packetBytes) 0
attr interpolationmode none
attr recordingmode sum(packetBytes)
attr source ieee80211Unicast(packetReceivedFromPeer)
attr title "packets received: unicast, sum(packetBytes)"
scalar CsmaCaNetwork.host[0].wlan[0].mac.dcf packetReceivedFromPeerMulticast:count 600
attr interpolationmode none
attr recordingmode count
attr source ieee80211Multicast(packetReceivedFromPeer)
attr title "packets received: multicast, count"
scalar CsmaCaNetwork.host[0].wlan[0].mac.dcf packetReceivedFromPeerMulticast:sum(packetBytes) 19200
attr interpolationmode none
attr recordingmode sum(packetBytes)
attr source ieee80211Multicast(packetReceivedFromPeer)
attr title "packets received: multicast, sum(packetBytes)"
scalar CsmaCaNetwork.host[0].wlan[0].mac.dcf packetReceivedFromPeerBroadcast:count 600
attr interpolationmode none
attr recordingmode count
attr source ieee80211Broadcast(packetReceivedFromPeer)
attr title "packets received: broadcast, count"
scalar CsmaCaNetwork.host[0].wlan[0].mac.dcf packetReceivedFromPeerBroadcast:sum(packetBytes) 19200
attr interpolationmode none
attr recordingmode sum(packetBytes)
attr source ieee80211Broadcast(packetReceivedFromPeer)
attr title "packets received: broadcast, sum(packetBytes)"
scalar CsmaCaNetwork.host[0].wlan[0].mac.dcf packetReceivedFromPeerWithRetry:count 0
attr interpolationmode none
attr recordingmode count
attr source ieee80211Retry(packetReceivedFromPeer)
attr title "packets received: with retry, count"
scalar CsmaCaNetwork.host[0].wlan[0].mac.dcf packetReceivedFromPeerWithRetry:sum(packetBytes) 0
attr interpolationmode none
attr recordingmode sum(packetBytes)
attr source ieee80211Retry(packetReceivedFromPeer)
attr title "packets received: with retry, sum(packetBytes)"
scalar CsmaCaNetwork.host[0].wlan[0].mac.dcf packetReceivedFromPeerWithoutRetry:count 600
attr interpolationmode none
attr recordingmode count
attr source ieee80211NotRetry(packetReceivedFromPeer)
attr title "packets received: without retry, count"
scalar CsmaCaNetwork.host[0].wlan[0].mac.dcf packetReceivedFromPeerWithoutRetry:sum(packetBytes) 19200
attr interpolationmode none
attr recordingmode sum(packetBytes)
attr source ieee80211NotRetry(packetReceivedFromPeer)
attr title "packets received: without retry, sum(packetBytes)"
scalar CsmaCaNetwork.host[0].wlan[0].mac.dcf packetSentToPeer:count 150
attr interpolationmode none
attr recordingmode count
attr title "packets sent, count"
scalar CsmaCaNetwork.host[0].wlan[0].mac.dcf packetSentToPeer:sum(packetBytes) 4800
attr interpolationmode none
attr recordingmode sum(packetBytes)
attr title "packets sent, sum(packetBytes)"
scalar CsmaCaNetwork.host[0].wlan[0].mac.dcf packetSentToPeerUnicast:count 0
attr interpolationmode none
attr recordingmode count
attr source ieee80211Unicast(packetSentToPeer)
attr title "packets sent: unicast, count"
scalar CsmaCaNetwork.host[0].wlan[0].mac.dcf packetSentToPeerUnicast:sum(packetBytes) 0
attr interpolationmode none
attr recordingmode sum(packetBytes)
attr source ieee80211Unicast(packetSentToPeer)
attr title "packets sent: unicast, sum(packetBytes)"
scalar CsmaCaNetwork.host[0].wlan[0].mac.dcf packetSentToPeerMulticast:count 150
attr interpolationmode none
attr recordingmode count
attr source ieee80211Multicast(packetSentToPeer)
attr title "packets sent: multicast, count"
scalar CsmaCaNetwork.host[0].wlan[0].mac.dcf packetSentToPeerMulticast:sum(packetBytes) 4800
attr interpolationmode none
attr recordingmode sum(packetBytes)
attr source ieee80211Multicast(packetSentToPeer)
attr title "packets sent: multicast, sum(packetBytes)"
scalar CsmaCaNetwork.host[0].wlan[0].mac.dcf packetSentToPeerBroadcast:count 150
attr interpolationmode none
attr recordingmode count
attr source ieee80211Broadcast(packetSentToPeer)
attr title "packets sent: broadcast , count"
scalar CsmaCaNetwork.host[0].wlan[0].mac.dcf packetSentToPeerBroadcast:sum(packetBytes) 4800
attr interpolationmode none
attr recordingmode sum(packetBytes)
attr source ieee80211Broadcast(packetSentToPeer)
attr title "packets sent: broadcast , sum(packetBytes)"
scalar CsmaCaNetwork.host[0].wlan[0].mac.dcf packetSentToPeerWithRetry:count 0
attr interpolationmode none
attr recordingmode count
attr source ieee80211Retry(packetSentToPeer)
attr title "packets sent: with retry, count"
scalar CsmaCaNetwork.host[0].wlan[0].mac.dcf packetSentToPeerWithRetry:sum(packetBytes) 0
attr interpolationmode none
attr recordingmode sum(packetBytes)
attr source ieee80211Retry(packetSentToPeer)
attr title "packets sent: with retry, sum(packetBytes)"
scalar CsmaCaNetwork.host[0].wlan[0].mac.dcf packetSentToPeerWithoutRetry:count 150
attr interpolationmode none
attr recordingmode count
attr source ieee80211NotRetry(packetSentToPeer)
attr title "packets sent: without retry, count"
scalar CsmaCaNetwork.host[0].wlan[0].mac.dcf packetSentToPeerWithoutRetry:sum(packetBytes) 4800
attr interpolationmode none
attr recordingmode sum(packetBytes)
attr source ieee80211NotRetry(packetSentToPeer)
attr title "packets sent: without retry, sum(packetBytes)"
scalar CsmaCaNetwork.host[0].wlan[0].mac.dcf packetDrop:count 0
attr interpolationmode none
attr recordingmode count
attr source packetDropped
attr title "packet drops, count"
scalar CsmaCaNetwork.host[0].wlan[0].mac.dcf packetDrop:sum(packetBytes) 0
attr interpolationmode none
attr recordingmode sum(packetBytes)
attr source packetDropped
attr title "packet drops, sum(packetBytes)"
scalar CsmaCaNetwork.host[0].wlan[0].mac.dcf packetDropNotAddressedToUs:count 0
attr interpolationmode none
attr recordingmode count
attr source packetDropReasonIsNotAddressedToUs(packetDropped)
attr title "packet drops: not addressed to us, count"
scalar CsmaCaNetwork.host[0].wlan[0].mac.dcf packetDropNotAddressedToUs:sum(packetBytes) 0
attr interpolationmode none
attr recordingmode sum(packetBytes)
attr source packetDropReasonIsNotAddressedToUs(packetDropped)
attr title "packet drops: not addressed to us, sum(packetBytes)"
scalar CsmaCaNetwork.host[0].wlan[0].mac.dcf packetDropQueueOverflow:count 0
attr interpolationmode none
attr recordingmode count
attr source packetDropReasonIsQueueOverflow(packetDropped)
attr title "packet drops: queue overflow, count"
scalar CsmaCaNetwork.host[0].wlan[0].mac.dcf packetDropQueueOverflow:sum(packetBytes) 0
attr interpolationmode none
attr recordingmode sum(packetBytes)
attr source packetDropReasonIsQueueOverflow(packetDropped)
attr title "packet drops: queue overflow, sum(packetBytes)"
scalar CsmaCaNetwork.host[0].wlan[0].mac.dcf packetDropRetryLimitReached:count 0
attr interpolationmode none
attr recordingmode count
attr source packetDropReasonIsRetryLimitReached(packetDropped)
attr title "packet drops: retry limit reached, count"
scalar CsmaCaNetwork.host[0].wlan[0].mac.dcf packetDropRetryLimitReached:sum(packetBytes) 0
attr interpolationmode none
attr recordingmode sum(packetBytes)
attr source packetDropReasonIsRetryLimitReached(packetDropped)
attr title "packet drops: retry limit reached, sum(packetBytes)"
scalar CsmaCaNetwork.host[0].wlan[0].mac.dcf linkBroken:count 0
attr interpolationmode none
attr recordingmode count
attr title "link breaks, count"
par CsmaCaNetwork.host[0].wlan[0].mac.ds typename "\"inet.linklayer.ieee80211.mac.Ds\""
par CsmaCaNetwork.host[0].wlan[0].mac.ds mibModule "\"CsmaCaNetwork.host[0].wlan[0].mib\""
par CsmaCaNetwork.host[0].wlan[0].mac.rx typename "\"inet.linklayer.ieee80211.mac.Rx\""
par CsmaCaNetwork.host[0].wlan[0].mac.tx typename "\"inet.linklayer.ieee80211.mac.Tx\""
par CsmaCaNetwork.host[0].wlan[0].mac.tx rxModule "\"^.rx\""
par CsmaCaNetwork.host[0].wlan[0].mac typename "\"inet.linklayer.ieee80211.mac.Ieee80211Mac\""
par CsmaCaNetwork.host[0].wlan[0].mac interfaceTableModule "\"CsmaCaNetwork.host[0].interfaceTable\""
par CsmaCaNetwork.host[0].wlan[0].mac mibModule "\"CsmaCaNetwork.host[0].wlan[0].mib\""
par CsmaCaNetwork.host[0].wlan[0].mac modeSet "\"g(mixed)\""
attr enum a,b,g(erp),g(mixed),n(mixed-2.4Ghz),p,ac
par CsmaCaNetwork.host[0].wlan[0].mac fcsMode "\"declared\""
attr enum declared,computed
par CsmaCaNetwork.host[0].wlan[0].mac initialRadioMode "\"receiver\""
attr enum off,sleep,receiver,transmitter,transceiver
par CsmaCaNetwork.host[0].wlan[0].mac mtu 2304B
attr unit B
par CsmaCaNetwork.host[0].wlan[0].mac qosStation false
scalar CsmaCaNetwork.host[0].wlan[0].mac packetReceivedFromLower:count 600
attr interpolationmode none
attr recordingmode count
attr title "packets received from lower layer, count"
scalar CsmaCaNetwork.host[0].wlan[0].mac packetReceivedFromLower:sum(packetBytes) 19200
attr interpolationmode none
attr recordingmode sum(packetBytes)
attr title "packets received from lower layer, sum(packetBytes)"
scalar CsmaCaNetwork.host[0].wlan[0].mac packetSentToLower:count 150
attr interpolationmode none
attr recordingmode count
attr title "packets sent to lower layer, count"
scalar CsmaCaNetwork.host[0].wlan[0].mac packetSentToLower:sum(packetBytes) 4800
attr interpolationmode none
attr recordingmode sum(packetBytes)
attr title "packets sent to lower layer, sum(packetBytes)"
scalar CsmaCaNetwork.host[0].wlan[0].mac packetReceivedFromUpper:count 0
attr interpolationmode none
attr recordingmode count
attr title "packets received from upper layer, count"
scalar CsmaCaNetwork.host[0].wlan[0].mac packetReceivedFromUpper:sum(packetBytes) 0
attr interpolationmode none
attr recordingmode sum(packetBytes)
attr title "packets received from upper layer, sum(packetBytes)"
scalar CsmaCaNetwork.host[0].wlan[0].mac packetSentToUpper:count 0
attr interpolationmode none
attr recordingmode count
attr title "packets sent to upper layer, count"
scalar CsmaCaNetwork.host[0].wlan[0].mac packetSentToUpper:sum(packetBytes) 0
attr interpolationmode none
attr recordingmode sum(packetBytes)
attr title "packets sent to upper layer, sum(packetBytes)"
scalar CsmaCaNetwork.host[0].wlan[0].mac packetDrop:count 0
attr interpolationmode none
attr recordingmode count
attr source packetDropped
attr title "packet drops, count"
scalar CsmaCaNetwork.host[0].wlan[0].mac packetDrop:sum(packetBytes) 0
attr interpolationmode none
attr recordingmode sum(packetBytes)
attr source packetDropped
attr title "packet drops, sum(packetBytes)"
scalar CsmaCaNetwork.host[0].wlan[0].mac packetDropIncorrectlyReceived:count 0
attr interpolationmode none
attr recordingmode count
attr source packetDropReasonIsIncorrectlyReceived(packetDropped)
attr title "packet drops: incorrectly received, count"
scalar CsmaCaNetwork.host[0].wlan[0].mac packetDropIncorrectlyReceived:sum(packetBytes) 0
attr interpolationmode none
attr recordingmode sum(packetBytes)
attr source packetDropReasonIsIncorrectlyReceived(packetDropped)
attr title "packet drops: incorrectly received, sum(packetBytes)"
scalar CsmaCaNetwork.host[0].wlan[0].mac packetDropNotAddressedToUs:count 0
attr interpolationmode none
attr recordingmode count
attr source packetDropReasonIsNotAddressedToUs(packetDropped)
attr title "packet drops: not addressed to us, count"
scalar CsmaCaNetwork.host[0].wlan[0].mac packetDropNotAddressedToUs:sum(packetBytes) 0
attr interpolationmode none
attr recordingmode sum(packetBytes)
attr source packetDropReasonIsNotAddressedToUs(packetDropped)
attr title "packet drops: not addressed to us, sum(packetBytes)"
scalar CsmaCaNetwork.host[0].wlan[0].mac packetDropQueueOverflow:count 0
attr interpolationmode none
attr recordingmode count
attr source packetDropReasonIsQueueOverflow(packetDropped)
attr title "packet drops: queue overflow, count"
scalar CsmaCaNetwork.host[0].wlan[0].mac packetDropQueueOverflow:sum(packetBytes) 0
attr interpolationmode none
attr recordingmode sum(packetBytes)
attr source packetDropReasonIsQueueOverflow(packetDropped)
attr title "packet drops: queue overflow, sum(packetBytes)"
scalar CsmaCaNetwork.host[0].wlan[0].mac packetDropRetryLimitReached:count 0
attr interpolationmode none
attr recordingmode count
attr source packetDropReasonIsRetryLimitReached(packetDropped)
attr title "packet drops: retry limit reached, count"
scalar CsmaCaNetwork.host[0].wlan[0].mac packetDropRetryLimitReached:sum(packetBytes) 0
attr interpolationmode none
attr recordingmode sum(packetBytes)
attr source packetDropReasonIsRetryLimitReached(packetDropped)
attr title "packet drops: retry limit reached, sum(packetBytes)"
scalar CsmaCaNetwork.host[0].wlan[0].mac packetDropDuplicateDetected:count 0
attr interpolationmode none
attr recordingmode count
attr source packetDropReasonIsDuplicateDetected(packetDropped)
attr title "packet drops: duplicate detected, count"
scalar CsmaCaNetwork.host[0].wlan[0].mac packetDropDuplicateDetected:sum(packetBytes) 0
attr interpolationmode none
attr recordingmode sum(packetBytes)
attr source packetDropReasonIsDuplicateDetected(packetDropped)
attr title "packet drops: duplicate detected, sum(packetBytes)"
scalar CsmaCaNetwork.host[0].wlan[0].mac packetDropOther:count 0
attr interpolationmode none
attr recordingmode count
attr source packetDropReasonIsOther(packetDropped)
attr title "packet drops: other, count"
scalar CsmaCaNetwork.host[0].wlan[0].mac packetDropOther:sum(packetBytes) 0
attr interpolationmode none
attr recordingmode sum(packetBytes)
attr source packetDropReasonIsOther(packetDropped)
attr title "packet drops: other, sum(packetBytes)"
scalar CsmaCaNetwork.host[0].wlan[0].mac linkBroken:count 0
attr interpolationmode none
attr recordingmode count
attr title "link breaks, count"
par CsmaCaNetwork.host[0].wlan[0].radio.antenna typename "\"inet.physicallayer.wireless.common.antenna.IsotropicAntenna\""
par CsmaCaNetwork.host[0].wlan[0].radio.antenna mobilityModule "\"^.^.^.mobility\""
par CsmaCaNetwork.host[0].wlan[0].radio.antenna numAntennas 1
par CsmaCaNetwork.host[0].wlan[0].radio.transmitter typename "\"inet.physicallayer.wireless.ieee80211.packetlevel.Ieee80211ScalarTransmitter\""
par CsmaCaNetwork.host[0].wlan[0].radio.transmitter preambleDuration -1s
attr unit s
par CsmaCaNetwork.host[0].wlan[0].radio.transmitter headerLength 192b
attr unit b
par CsmaCaNetwork.host[0].wlan[0].radio.transmitter bitrate -1bps
attr unit bps
par CsmaCaNetwork.host[0].wlan[0].radio.transmitter power 0.02W
attr unit W
par CsmaCaNetwork.host[0].wlan[0].radio.transmitter centerFrequency 2.412e+09Hz
attr unit Hz
par CsmaCaNetwork.host[0].wlan[0].radio.transmitter bandwidth "nan Hz"
attr unit Hz
par CsmaCaNetwork.host[0].wlan[0].radio.transmitter codeRate 1
par CsmaCaNetwork.host[0].wlan[0].radio.transmitter modulation "\"BPSK\""
par CsmaCaNetwork.host[0].wlan[0].radio.transmitter opMode "\"g(mixed)\""
attr enum a,b,g(erp),g(mixed),n(mixed-2.4Ghz),p,ac
par CsmaCaNetwork.host[0].wlan[0].radio.transmitter bandName "\"2.4 GHz\""
attr enum "2.4 GHz,5 GHz,5 GHz (20 MHz),5 GHz (40 MHz),5 GHz (80 MHz),5 GHz (160 MHz),5.9 GHz"
par CsmaCaNetwork.host[0].wlan[0].radio.transmitter channelNumber 0
par CsmaCaNetwork.host[0].wlan[0].radio.receiver.errorModel typename "\"inet.physicallayer.wireless.ieee80211.packetlevel.errormodel.Ieee80211NistErrorModel\""
par CsmaCaNetwork.host[0].wlan[0].radio.receiver.errorModel corruptionMode "\"packet\""
attr enum packet,chunk,byte,bit
par CsmaCaNetwork.host[0].wlan[0].radio.receiver.errorModel snirMode "\"min\""
attr enum min,mean
par CsmaCaNetwork.host[0].wlan[0].radio.receiver.errorModel snirOffset 0dB
attr unit dB
par CsmaCaNetwork.host[0].wlan[0].radio.receiver typename "\"inet.physicallayer.wireless.ieee80211.packetlevel.Ieee80211ScalarReceiver\""
par CsmaCaNetwork.host[0].wlan[0].radio.receiver snirThreshold 4dB
attr unit dB
par CsmaCaNetwork.host[0].wlan[0].radio.receiver snirThresholdMode "\"min\""
attr enum min,mean
par CsmaCaNetwork.host[0].wlan[0].radio.receiver energyDetection -85dBm
attr unit dBm
par CsmaCaNetwork.host[0].wlan[0].radio.receiver sensitivity -85dBm
attr unit dBm
par CsmaCaNetwork.host[0].wlan[0].radio.receiver centerFrequency 2.412e+09Hz
attr unit Hz
par CsmaCaNetwork.host[0].wlan[0].radio.receiver bandwidth 2.2e+07Hz
attr unit Hz
par CsmaCaNetwork.host[0].wlan[0].radio.receiver modulation "\"BPSK\""
par CsmaCaNetwork.host[0].wlan[0].radio.receiver opMode "\"g(mixed)\""
attr enum a,b,g(erp),g(mixed),n(mixed-2.4Ghz),p,ac
par CsmaCaNetwork.host[0].wlan[0].radio.receiver bandName "\"2.4 GHz\""
attr enum "2.4 GHz,5 GHz,5 GHz (20 MHz),5 GHz (40 MHz),5 GHz (80 MHz),5 GHz (160 MHz),5.9 GHz"
par CsmaCaNetwork.host[0].wlan[0].radio.receiver channelNumber 0
par CsmaCaNetwork.host[0].wlan[0].radio typename "\"inet.physicallayer.wireless.ieee80211.packetlevel.Ieee80211ScalarRadio\""
par CsmaCaNetwork.host[0].wlan[0].radio radioMediumModule "\"radioMedium\""
par CsmaCaNetwork.host[0].wlan[0].radio energySourceModule "\"\""
par CsmaCaNetwork.host[0].wlan[0].radio initialRadioMode "\"off\""
attr enum off,sleep,receiver,transmitter,transceiver
par CsmaCaNetwork.host[0].wlan[0].radio switchingTimes "\"ms 0 0 0 0 0 0 0 0 0 0 0 0 0 0 0 0 0 0 0 0 0 0 0 0 0\""
par CsmaCaNetwork.host[0].wlan[0].radio sendRawBytes false
par CsmaCaNetwork.host[0].wlan[0].radio separateTransmissionParts false
par CsmaCaNetwork.host[0].wlan[0].radio separateReceptionParts false
par CsmaCaNetwork.host[0].wlan[0].radio displayCommunicationRange false
par CsmaCaNetwork.host[0].wlan[0].radio displayInterferenceRange false
par CsmaCaNetwork.host[0].wlan[0].radio centerFrequency 2.412e+09Hz
attr unit Hz
par CsmaCaNetwork.host[0].wlan[0].radio bandwidth "nan Hz"
attr unit Hz
par CsmaCaNetwork.host[0].wlan[0].radio signalAnalogRepresentation "\"scalar\""
attr enum scalar,dimensional
par CsmaCaNetwork.host[0].wlan[0].radio opMode "\"g(mixed)\""
attr enum a,b,g(erp),g(mixed),n(mixed-2.4Ghz),p,ac
par CsmaCaNetwork.host[0].wlan[0].radio bandName "\"2.4 GHz\""
attr enum "2.4 GHz,5 GHz,5 GHz (20 MHz),5 GHz (40 MHz),5 GHz (80 MHz),5 GHz (160 MHz),5.9 GHz"
par CsmaCaNetwork.host[0].wlan[0].radio channelNumber 0
par CsmaCaNetwork.host[0].wlan[0].radio crcMode "\"declared\""
attr enum declared,computed
statistic CsmaCaNetwork.host[0].wlan[0].radio radioChannel:histogram
field count 151
field mean 0
field stddev 0
field min 0
field max 0
field sum 0
field sqrsum 0
attr interpolationmode sample-hold
attr recordingmode histogram
attr source radioChannelChanged
attr title "Radio channel"
bin	-inf	0
bin	-0.5	0
bin	-0.48	0
bin	-0.46	0
bin	-0.44	0
bin	-0.42	0
bin	-0.4	0
bin	-0.38	0
bin	-0.36	0
bin	-0.34	0
bin	-0.32	0
bin	-0.3	0
bin	-0.28	0
bin	-0.26	0
bin	-0.24	0
bin	-0.22	0
bin	-0.2	0
bin	-0.18	0
bin	-0.16	0
bin	-0.14	0
bin	-0.12	0
bin	-0.1	0
bin	-0.08	0
bin	-0.06	0
bin	-0.04	0
bin	-0.02	0
bin	0	151
bin	0.02	0
bin	0.04	0
bin	0.06	0
bin	0.08	0
bin	0.1	0
bin	0.12	0
bin	0.14	0
bin	0.16	0
bin	0.18	0
bin	0.2	0
bin	0.22	0
bin	0.24	0
bin	0.26	0
bin	0.28	0
bin	0.3	0
bin	0.32	0
bin	0.34	0
bin	0.36	0
bin	0.38	0
bin	0.4	0
bin	0.42	0
bin	0.44	0
bin	0.46	0
bin	0.48	0
bin	0.5	0
scalar CsmaCaNetwork.host[0].wlan[0].radio radioMode:count 303
attr interpolationmode sample-hold
attr recordingmode count
attr source radioModeChanged
attr title "Radio mode, count"
scalar CsmaCaNetwork.host[0].wlan[0].radio receptionState:count 1501
attr interpolationmode sample-hold
attr recordingmode count
attr source receptionStateChanged
attr title "Radio reception state, count"
scalar CsmaCaNetwork.host[0].wlan[0].radio transmissionState:count 600
attr interpolationmode sample-hold
attr recordingmode count
attr source transmissionStateChanged
attr title "Radio transmission state, count"
statistic CsmaCaNetwork.host[0].wlan[0].radio minSnir:histogram
field count 600
field mean 2000000000000
field stddev 0
field min 2000000000000
field max 2000000000000
field sum 1.2e+15
field sqrsum 2.4e+27
attr recordingmode histogram
attr source minimumSnir(packetSentToUpper)
attr title "Min SNIR"
bin	-inf	0
bin	1999999999999	0
bin	2000000000000	600
bin	2000000000001	0
statistic CsmaCaNetwork.host[0].wlan[0].radio packetErrorRate:histogram
field count 600
field mean 0
field stddev 0
field min 0
field max 0
field sum 0
field sqrsum 0
attr recordingmode histogram
attr source packetErrorRate(packetSentToUpper)
attr title "Packet error rate"
bin	-inf	0
bin	-0.5	0
bin	-0.48	0
bin	-0.46	0
bin	-0.44	0
bin	-0.42	0
bin	-0.4	0
bin	-0.38	0
bin	-0.36	0
bin	-0.34	0
bin	-0.32	0
bin	-0.3	0
bin	-0.28	0
bin	-0.26	0
bin	-0.24	0
bin	-0.22	0
bin	-0.2	0
bin	-0.18	0
bin	-0.16	0
bin	-0.14	0
bin	-0.12	0
bin	-0.1	0
bin	-0.08	0
bin	-0.06	0
bin	-0.04	0
bin	-0.02	0
bin	0	600
bin	0.02	0
bin	0.04	0
bin	0.06	0
bin	0.08	0
bin	0.1	0
bin	0.12	0
bin	0.14	0
bin	0.16	0
bin	0.18	0
bin	0.2	0
bin	0.22	0
bin	0.24	0
bin	0.26	0
bin	0.28	0
bin	0.3	0
bin	0.32	0
bin	0.34	0
bin	0.36	0
bin	0.38	0
bin	0.4	0
bin	0.42	0
bin	0.44	0
bin	0.46	0
bin	0.48	0
bin	0.5	0
statistic CsmaCaNetwork.host[0].wlan[0].radio bitErrorRate:histogram
field count 0
field mean -nan
field stddev nan
field min nan
field max nan
field sum 0
field sqrsum 0
attr recordingmode histogram
attr source bitErrorRate(packetSentToUpper)
attr title "Bit error rate"
bin	-inf	0
bin	0	0
bin	1	0
statistic CsmaCaNetwork.host[0].wlan[0].radio symbolErrorRate:histogram
field count 0
field mean -nan
field stddev nan
field min nan
field max nan
field sum 0
field sqrsum 0
attr recordingmode histogram
attr source symbolErrorRate(packetSentToUpper)
attr title "Symbol error rate"
bin	-inf	0
bin	0	0
bin	1	0
par CsmaCaNetwork.host[0].wlan[0] typename "\"inet.linklayer.ieee80211.Ieee80211Interface\""
par CsmaCaNetwork.host[0].wlan[0] displayStringTextFormat "\"%a (%i)\\n%m\""
par CsmaCaNetwork.host[0].wlan[0] recordPcap false
par CsmaCaNetwork.host[0].wlan[0] numPcapRecorders 0
par CsmaCaNetwork.host[0].wlan[0] interfaceTableModule "\"CsmaCaNetwork.host[0].interfaceTable\""
par CsmaCaNetwork.host[0].wlan[0] energySourceModule "\"\""
par CsmaCaNetwork.host[0].wlan[0] opMode "\"g(mixed)\""
attr enum a,b,g(erp),g(mixed),n(mixed-2.4Ghz),p,ac
par CsmaCaNetwork.host[0].wlan[0] address "\"0A-AA-00-00-00-01\""
attr mutable ""
par CsmaCaNetwork.host[0].wlan[0] protocol "\"\""
par CsmaCaNetwork.host[0].wlan[0] bitrate -1bps
attr unit bps
scalar CsmaCaNetwork.host[0].wlan[0] packetDropInterfaceDown:count 0
attr interpolationmode none
attr recordingmode count
attr source packetDropReasonIsInterfaceDown(packetDropped)
attr title "packet drops: interface down, count"
scalar CsmaCaNetwork.host[0].wlan[0] packetDropInterfaceDown:sum(packetBytes) 0
attr interpolationmode none
attr recordingmode sum(packetBytes)
attr source packetDropReasonIsInterfaceDown(packetDropped)
attr title "packet drops: interface down, sum(packetBytes)"
scalar CsmaCaNetwork.host[0].wlan[0] packetDropNoCarrier:count 0
attr interpolationmode none
attr recordingmode count
attr source packetDropReasonIsNoCarrier(packetDropped)
attr title "packet drops: no carrier, count"
scalar CsmaCaNetwork.host[0].wlan[0] packetDropNoCarrier:sum(packetBytes) 0
attr interpolationmode none
attr recordingmode sum(packetBytes)
attr source packetDropReasonIsNoCarrier(packetDropped)
attr title "packet drops: no carrier, sum(packetBytes)"
par CsmaCaNetwork.host[0].ipv4.transportIn.channel typename "\"ned.IdealChannel\""
par CsmaCaNetwork.host[0].ipv4.up.out[0].channel typename "\"ned.IdealChannel\""
par CsmaCaNetwork.host[0].ipv4.lp.out[2].channel typename "\"ned.IdealChannel\""
par CsmaCaNetwork.host[0].ipv4.ifIn.channel typename "\"ned.IdealChannel\""
par CsmaCaNetwork.host[0].ipv4.configurator typename "\"inet.networklayer.configurator.ipv4.Ipv4NodeConfigurator\""
par CsmaCaNetwork.host[0].ipv4.configurator interfaceTableModule "\"CsmaCaNetwork.host[0].interfaceTable\""
par CsmaCaNetwork.host[0].ipv4.configurator routingTableModule "\"CsmaCaNetwork.host[0].ipv4.routingTable\""
par CsmaCaNetwork.host[0].ipv4.configurator networkConfiguratorModule "\"configurator\""
par CsmaCaNetwork.host[0].ipv4.configurator configureRoutingTable true
par CsmaCaNetwork.host[0].ipv4.routingTable typename "\"inet.networklayer.ipv4.Ipv4RoutingTable\""
par CsmaCaNetwork.host[0].ipv4.routingTable interfaceTableModule "\"CsmaCaNetwork.host[0].interfaceTable\""
par CsmaCaNetwork.host[0].ipv4.routingTable routerId "\"auto\""
par CsmaCaNetwork.host[0].ipv4.routingTable netmaskRoutes "\"*\""
par CsmaCaNetwork.host[0].ipv4.routingTable forwarding false
par CsmaCaNetwork.host[0].ipv4.routingTable multicastForwarding false
par CsmaCaNetwork.host[0].ipv4.routingTable useAdminDist false
par CsmaCaNetwork.host[0].ipv4.routingTable routingFile "\"\""
par CsmaCaNetwork.host[0].ipv4.natTable typename "\"inet.networklayer.ipv4.Ipv4NatTable\""
par CsmaCaNetwork.host[0].ipv4.natTable networkProtocolModule "\"^.ip\""
par CsmaCaNetwork.host[0].ipv4.natTable config "<config/> at content:1"
par CsmaCaNetwork.host[0].ipv4.up typename "\"inet.common.MessageDispatcher\""
par CsmaCaNetwork.host[0].ipv4.up displayStringTextFormat "\"processed %p pk (%l)\""
par CsmaCaNetwork.host[0].ipv4.up forwardServiceRegistration true
par CsmaCaNetwork.host[0].ipv4.up forwardProtocolRegistration true
par CsmaCaNetwork.host[0].ipv4.igmp typename "\"inet.networklayer.ipv4.Igmpv2\""
par CsmaCaNetwork.host[0].ipv4.igmp interfaceTableModule "\"CsmaCaNetwork.host[0].interfaceTable\""
par CsmaCaNetwork.host[0].ipv4.igmp routingTableModule "\"CsmaCaNetwork.host[0].ipv4.routingTable\""
par CsmaCaNetwork.host[0].ipv4.igmp crcMode "\"declared\""
attr enum declared,computed
par CsmaCaNetwork.host[0].ipv4.igmp enabled true
par CsmaCaNetwork.host[0].ipv4.igmp robustnessVariable 2
par CsmaCaNetwork.host[0].ipv4.igmp queryInterval 125s
attr unit s
par CsmaCaNetwork.host[0].ipv4.igmp queryResponseInterval 10s
attr unit s
par CsmaCaNetwork.host[0].ipv4.igmp groupMembershipInterval 260s
attr unit s
par CsmaCaNetwork.host[0].ipv4.igmp otherQuerierPresentInterval 255s
attr unit s
par CsmaCaNetwork.host[0].ipv4.igmp startupQueryInterval 31.25s
attr unit s
par CsmaCaNetwork.host[0].ipv4.igmp startupQueryCount 2
par CsmaCaNetwork.host[0].ipv4.igmp lastMemberQueryInterval 1s
attr unit s
par CsmaCaNetwork.host[0].ipv4.igmp lastMemberQueryCount 2
par CsmaCaNetwork.host[0].ipv4.igmp unsolicitedReportInterval 10s
attr unit s
par CsmaCaNetwork.host[0].ipv4.icmp typename "\"inet.networklayer.ipv4.Icmp\""
par CsmaCaNetwork.host[0].ipv4.icmp interfaceTableModule "\"CsmaCaNetwork.host[0].interfaceTable\""
par CsmaCaNetwork.host[0].ipv4.icmp routingTableModule "\"CsmaCaNetwork.host[0].ipv4.routingTable\""
par CsmaCaNetwork.host[0].ipv4.icmp crcMode "\"declared\""
attr enum declared,computed
attr mutable ""
par CsmaCaNetwork.host[0].ipv4.icmp quoteLength 8B
attr mutable ""
attr unit B
par CsmaCaNetwork.host[0].ipv4.mp typename "\"inet.common.MessageDispatcher\""
par CsmaCaNetwork.host[0].ipv4.mp displayStringTextFormat "\"processed %p pk (%l)\""
par CsmaCaNetwork.host[0].ipv4.mp forwardServiceRegistration true
par CsmaCaNetwork.host[0].ipv4.mp forwardProtocolRegistration true
par CsmaCaNetwork.host[0].ipv4.ip typename "\"inet.networklayer.ipv4.Ipv4\""
par CsmaCaNetwork.host[0].ipv4.ip interfaceTableModule "\"CsmaCaNetwork.host[0].interfaceTable\""
par CsmaCaNetwork.host[0].ipv4.ip routingTableModule "\"CsmaCaNetwork.host[0].ipv4.routingTable\""
par CsmaCaNetwork.host[0].ipv4.ip arpModule "\"CsmaCaNetwork.host[0].ipv4.arp\""
par CsmaCaNetwork.host[0].ipv4.ip icmpModule "\"CsmaCaNetwork.host[0].ipv4.icmp\""
par CsmaCaNetwork.host[0].ipv4.ip crcMode "\"declared\""
attr enum declared,computed
par CsmaCaNetwork.host[0].ipv4.ip timeToLive 32
par CsmaCaNetwork.host[0].ipv4.ip multicastTimeToLive 32
par CsmaCaNetwork.host[0].ipv4.ip fragmentTimeout 60s
attr unit s
par CsmaCaNetwork.host[0].ipv4.ip limitedBroadcast false
par CsmaCaNetwork.host[0].ipv4.ip directBroadcastInterfaces "\"\""
scalar CsmaCaNetwork.host[0].ipv4.ip packetDropAddressResolutionFailed:count 0
attr interpolationmode none
attr recordingmode count
attr source packetDropReasonIsAddressResolutionFailed(packetDropped)
attr title "packet drop: address resolution failed, count"
scalar CsmaCaNetwork.host[0].ipv4.ip packetDropAddressResolutionFailed:sum(packetBytes) 0
attr interpolationmode none
attr recordingmode sum(packetBytes)
attr source packetDropReasonIsAddressResolutionFailed(packetDropped)
attr title "packet drop: address resolution failed, sum(packetBytes)"
scalar CsmaCaNetwork.host[0].ipv4.ip packetDropHopLimitReached:count 0
attr interpolationmode none
attr recordingmode count
attr source packetDropReasonIsHopLimitReached(packetDropped)
attr title "packet drop: hop limit reached, count"
scalar CsmaCaNetwork.host[0].ipv4.ip packetDropHopLimitReached:sum(packetBytes) 0
attr interpolationmode none
attr recordingmode sum(packetBytes)
attr source packetDropReasonIsHopLimitReached(packetDropped)
attr title "packet drop: hop limit reached, sum(packetBytes)"
scalar CsmaCaNetwork.host[0].ipv4.ip packetDropForwardingDisabled:count 0
attr interpolationmode none
attr recordingmode count
attr source packetDropReasonIsForwardingDisabled(packetDropped)
attr title "packet drop: forwarding disabled, count"
scalar CsmaCaNetwork.host[0].ipv4.ip packetDropForwardingDisabled:sum(packetBytes) 0
attr interpolationmode none
attr recordingmode sum(packetBytes)
attr source packetDropReasonIsForwardingDisabled(packetDropped)
attr title "packet drop: forwarding disabled, sum(packetBytes)"
scalar CsmaCaNetwork.host[0].ipv4.ip packetDropNoInterfaceFound:count 0
attr interpolationmode none
attr recordingmode count
attr source packetDropReasonIsNoInterfaceFound(packetDropped)
attr title "packet drop: no interface found, count"
scalar CsmaCaNetwork.host[0].ipv4.ip packetDropNoInterfaceFound:sum(packetBytes) 0
attr interpolationmode none
attr recordingmode sum(packetBytes)
attr source packetDropReasonIsNoInterfaceFound(packetDropped)
attr title "packet drop: no interface found, sum(packetBytes)"
scalar CsmaCaNetwork.host[0].ipv4.ip packetDropNoRouteFound:count 0
attr interpolationmode none
attr recordingmode count
attr source packetDropReasonIsNoRouteFound(packetDropped)
attr title "packet drop: no route found, count"
scalar CsmaCaNetwork.host[0].ipv4.ip packetDropNoRouteFound:sum(packetBytes) 0
attr interpolationmode none
attr recordingmode sum(packetBytes)
attr source packetDropReasonIsNoRouteFound(packetDropped)
attr title "packet drop: no route found, sum(packetBytes)"
scalar CsmaCaNetwork.host[0].ipv4.ip packetDropUndefined:count 0
attr interpolationmode none
attr recordingmode count
attr source packetDropReasonIsUndefined(packetDropped)
attr title "packet drop: undefined, count"
scalar CsmaCaNetwork.host[0].ipv4.ip packetDropUndefined:sum(packetBytes) 0
attr interpolationmode none
attr recordingmode sum(packetBytes)
attr source packetDropReasonIsUndefined(packetDropped)
attr title "packet drop: undefined, sum(packetBytes)"
par CsmaCaNetwork.host[0].ipv4.arp typename "\"inet.networklayer.arp.ipv4.Arp\""
par CsmaCaNetwork.host[0].ipv4.arp interfaceTableModule "\"CsmaCaNetwork.host[0].interfaceTable\""
par CsmaCaNetwork.host[0].ipv4.arp routingTableModule "\"CsmaCaNetwork.host[0].ipv4.routingTable\""
par CsmaCaNetwork.host[0].ipv4.arp retryTimeout 1s
attr unit s
par CsmaCaNetwork.host[0].ipv4.arp retryCount 3
par CsmaCaNetwork.host[0].ipv4.arp cacheTimeout 120s
attr unit s
par CsmaCaNetwork.host[0].ipv4.arp proxyArpInterfaces "\"\""
scalar CsmaCaNetwork.host[0].ipv4.arp arpResolutionFailed:count 0
attr recordingmode count
attr title "ARP failed resolutions, count"
scalar CsmaCaNetwork.host[0].ipv4.arp arpResolutionCompleted:count 0
attr recordingmode count
attr title "ARP completed resolutions, count"
scalar CsmaCaNetwork.host[0].ipv4.arp arpResolutionInitiated:count 0
attr recordingmode count
attr title "ARP initiated resolutions, count"
scalar CsmaCaNetwork.host[0].ipv4.arp arpReplySent:count 0
attr recordingmode count
attr source arpReplySent
attr title "ARP replies sent, count"
scalar CsmaCaNetwork.host[0].ipv4.arp arpReplySent:sum(packetBytes) 0
attr recordingmode sum(packetBytes)
attr source arpReplySent
attr title "ARP replies sent, sum(packetBytes)"
scalar CsmaCaNetwork.host[0].ipv4.arp arpRequestSent:count 0
attr recordingmode count
attr source arpRequestSent
attr title "ARP request sent, count"
scalar CsmaCaNetwork.host[0].ipv4.arp arpRequestSent:sum(packetBytes) 0
attr recordingmode sum(packetBytes)
attr source arpRequestSent
attr title "ARP request sent, sum(packetBytes)"
par CsmaCaNetwork.host[0].ipv4.lp typename "\"inet.common.MessageDispatcher\""
par CsmaCaNetwork.host[0].ipv4.lp displayStringTextFormat "\"processed %p pk (%l)\""
par CsmaCaNetwork.host[0].ipv4.lp forwardServiceRegistration true
par CsmaCaNetwork.host[0].ipv4.lp forwardProtocolRegistration true
par CsmaCaNetwork.host[0].ipv4 typename "\"inet.networklayer.ipv4.Ipv4NetworkLayer\""
par CsmaCaNetwork.host[0].ipv4 forwarding false
par CsmaCaNetwork.host[0].ipv4 multicastForwarding false
par CsmaCaNetwork.host[0].ipv4 interfaceTableModule "\"CsmaCaNetwork.host[0].interfaceTable\""
par CsmaCaNetwork.host[0].ipv4 displayStringTextFormat "\"%i\""
par CsmaCaNetwork.host[0].nl typename "\"inet.common.MessageDispatcher\""
par CsmaCaNetwork.host[0].nl displayStringTextFormat "\"processed %p pk (%l)\""
par CsmaCaNetwork.host[0].nl forwardServiceRegistration true
par CsmaCaNetwork.host[0].nl forwardProtocolRegistration true
par CsmaCaNetwork.host[0].udp typename "\"inet.transportlayer.udp.Udp\""
par CsmaCaNetwork.host[0].udp interfaceTableModule "\"CsmaCaNetwork.host[0].interfaceTable\""
par CsmaCaNetwork.host[0].udp icmpModule "\"^.ipv4.icmp\""
par CsmaCaNetwork.host[0].udp icmpv6Module "\"^.ipv6.icmpv6\""
par CsmaCaNetwork.host[0].udp crcMode "\"declared\""
attr enum disabled,declared,computed
par CsmaCaNetwork.host[0].udp defaultMulticastLoop true
scalar CsmaCaNetwork.host[0].udp packetReceived:count 0
attr interpolationmode none
attr recordingmode count
attr source packetReceived
attr title "packets received, count"
scalar CsmaCaNetwork.host[0].udp packetReceived:sum(packetBytes) 0
attr interpolationmode none
attr recordingmode sum(packetBytes)
attr source packetReceived
attr title "packets received, sum(packetBytes)"
scalar CsmaCaNetwork.host[0].udp packetSent:count 0
attr interpolationmode none
attr recordingmode count
attr source packetSent
attr title "packets sent, count"
scalar CsmaCaNetwork.host[0].udp packetSent:sum(packetBytes) 0
attr interpolationmode none
attr recordingmode sum(packetBytes)
attr source packetSent
attr title "packets sent, sum(packetBytes)"
scalar CsmaCaNetwork.host[0].udp passedUpPk:count 0
attr interpolationmode none
attr recordingmode count
attr source packetSentToUpper
attr title "packets passed up, count"
scalar CsmaCaNetwork.host[0].udp droppedPkWrongPort:count 0
attr interpolationmode none
attr recordingmode count
attr source packetDropReasonIsNoPortFound(packetDropped)
attr title "packets dropped (wrong port), count"
scalar CsmaCaNetwork.host[0].udp droppedPkBadChecksum:count 0
attr interpolationmode none
attr recordingmode count
attr source packetDropReasonIsIncorrectlyReceived(packetDropped)
attr title "packets dropped (checksum error), count"
par CsmaCaNetwork.host[0].tcp typename "\"inet.transportlayer.tcp.Tcp\""
par CsmaCaNetwork.host[0].tcp crcMode "\"declared\""
attr enum declared,computed
par CsmaCaNetwork.host[0].tcp advertisedWindow 7504
par CsmaCaNetwork.host[0].tcp delayedAcksEnabled false
par CsmaCaNetwork.host[0].tcp nagleEnabled true
par CsmaCaNetwork.host[0].tcp limitedTransmitEnabled false
par CsmaCaNetwork.host[0].tcp increasedIWEnabled false
par CsmaCaNetwork.host[0].tcp sackSupport false
par CsmaCaNetwork.host[0].tcp windowScalingSupport false
par CsmaCaNetwork.host[0].tcp windowScalingFactor -1
par CsmaCaNetwork.host[0].tcp timestampSupport false
par CsmaCaNetwork.host[0].tcp mss 536
par CsmaCaNetwork.host[0].tcp msl 120s
attr unit s
par CsmaCaNetwork.host[0].tcp tcpAlgorithmClass "\"TcpReno\""
par CsmaCaNetwork.host[0].tcp useDataNotification false
par CsmaCaNetwork.host[0].tcp dupthresh 3
par CsmaCaNetwork.host[0].tcp initialSsthresh 4294967295
par CsmaCaNetwork.host[0].tcp stopOperationExtraTime 0s
attr unit s
par CsmaCaNetwork.host[0].tcp stopOperationTimeout 2s
attr unit s
par CsmaCaNetwork.host[0].tcp ecnWillingness false
par CsmaCaNetwork.host[0].tcp dctcpGamma 0.0625
par CsmaCaNetwork.host[0].tn typename "\"inet.common.MessageDispatcher\""
par CsmaCaNetwork.host[0].tn displayStringTextFormat "\"processed %p pk (%l)\""
par CsmaCaNetwork.host[0].tn forwardServiceRegistration true
par CsmaCaNetwork.host[0].tn forwardProtocolRegistration true
par CsmaCaNetwork.host[0].at typename "\"inet.common.MessageDispatcher\""
par CsmaCaNetwork.host[0].at displayStringTextFormat "\"processed %p pk (%l)\""
par CsmaCaNetwork.host[0].at forwardServiceRegistration true
par CsmaCaNetwork.host[0].at forwardProtocolRegistration true
par CsmaCaNetwork.host[0] typename "\"inet.node.inet.WirelessHost\""
par CsmaCaNetwork.host[0] hasStatus false
par CsmaCaNetwork.host[0] osgModel "\"\""
par CsmaCaNetwork.host[0] osgModelColor "\"\""
par CsmaCaNetwork.host[0] canvasImage "\"\""
par CsmaCaNetwork.host[0] canvasImageColor "\"\""
par CsmaCaNetwork.host[0] recordPcap false
par CsmaCaNetwork.host[0] numPcapRecorders 0
par CsmaCaNetwork.host[0] numLoInterfaces 1
par CsmaCaNetwork.host[0] numWlanInterfaces 1
par CsmaCaNetwork.host[0] numEthInterfaces 0
par CsmaCaNetwork.host[0] numPppInterfaces 0
par CsmaCaNetwork.host[0] numTunInterfaces 0
par CsmaCaNetwork.host[0] numVirtInterfaces 0
par CsmaCaNetwork.host[0] fcsMode "\"declared\""
attr enum declared,computed
par CsmaCaNetwork.host[0] hasIpv4 true
par CsmaCaNetwork.host[0] hasIpv6 false
par CsmaCaNetwork.host[0] hasGn false
par CsmaCaNetwork.host[0] forwarding false
par CsmaCaNetwork.host[0] multicastForwarding false
par CsmaCaNetwork.host[0] hasUdp true
par CsmaCaNetwork.host[0] hasTcp true
par CsmaCaNetwork.host[0] hasSctp false
par CsmaCaNetwork.host[0] numApps 0
par CsmaCaNetwork.host[1].radioIn[0].channel typename "\"ned.IdealChannel\""
par CsmaCaNetwork.host[1].mobility typename "\"inet.mobility.static.StationaryMobility\""
par CsmaCaNetwork.host[1].mobility subjectModule "\"^\""
par CsmaCaNetwork.host[1].mobility coordinateSystemModule "\"\""
par CsmaCaNetwork.host[1].mobility displayStringTextFormat "\"p: %p\\nv: %v\""
attr mutable ""
par CsmaCaNetwork.host[1].mobility updateDisplayString true
par CsmaCaNetwork.host[1].mobility constraintAreaMinX "-inf m"
attr unit m
par CsmaCaNetwork.host[1].mobility constraintAreaMinY "-inf m"
attr unit m
par CsmaCaNetwork.host[1].mobility constraintAreaMinZ "-inf m"
attr unit m
par CsmaCaNetwork.host[1].mobility constraintAreaMaxX "inf m"
attr unit m
par CsmaCaNetwork.host[1].mobility constraintAreaMaxY "inf m"
attr unit m
par CsmaCaNetwork.host[1].mobility constraintAreaMaxZ "inf m"
attr unit m
par CsmaCaNetwork.host[1].mobility initialX "nan m"
attr unit m
par CsmaCaNetwork.host[1].mobility initialY "nan m"
attr unit m
par CsmaCaNetwork.host[1].mobility initialZ 0m
attr unit m
par CsmaCaNetwork.host[1].mobility initialLatitude "nan deg"
attr unit deg
par CsmaCaNetwork.host[1].mobility initialLongitude "nan deg"
attr unit deg
par CsmaCaNetwork.host[1].mobility initialAltitude 0m
attr unit m
par CsmaCaNetwork.host[1].mobility initialHeading 0deg
attr unit deg
par CsmaCaNetwork.host[1].mobility initialElevation 0deg
attr unit deg
par CsmaCaNetwork.host[1].mobility initialBank 0deg
attr unit deg
par CsmaCaNetwork.host[1].mobility initFromDisplayString true
par CsmaCaNetwork.host[1].mobility updateFromDisplayString true
par CsmaCaNetwork.host[1].interfaceTable typename "\"inet.networklayer.common.InterfaceTable\""
par CsmaCaNetwork.host[1].interfaceTable displayAddresses false
par CsmaCaNetwork.host[1].cb typename "\"inet.common.MessageDispatcher\""
par CsmaCaNetwork.host[1].cb displayStringTextFormat "\"processed %p pk (%l)\""
par CsmaCaNetwork.host[1].cb forwardServiceRegistration true
par CsmaCaNetwork.host[1].cb forwardProtocolRegistration true
par CsmaCaNetwork.host[1].bl typename "\"inet.common.MessageDispatcher\""
par CsmaCaNetwork.host[1].bl displayStringTextFormat "\"processed %p pk (%l)\""
par CsmaCaNetwork.host[1].bl forwardServiceRegistration true
par CsmaCaNetwork.host[1].bl forwardProtocolRegistration true
par CsmaCaNetwork.host[1].li typename "\"inet.common.MessageDispatcher\""
par CsmaCaNetwork.host[1].li displayStringTextFormat "\"processed %p pk (%l)\""
par CsmaCaNetwork.host[1].li forwardServiceRegistration true
par CsmaCaNetwork.host[1].li forwardProtocolRegistration true
par CsmaCaNetwork.host[1].lo[0].upperLayerIn.channel typename "\"ned.IdealChannel\""
par CsmaCaNetwork.host[1].lo[0].lo.upperLayerOut.channel typename "\"ned.IdealChannel\""
par CsmaCaNetwork.host[1].lo[0].lo typename "\"inet.linklayer.loopback.Loopback\""
par CsmaCaNetwork.host[1].lo[0].lo interfaceTableModule "\"CsmaCaNetwork.host[1].interfaceTable\""
par CsmaCaNetwork.host[1].lo[0].lo mtu 4470B
attr unit B
scalar CsmaCaNetwork.host[1].lo[0].lo rcvdPkFromHl:count 0
attr interpolationmode none
attr recordingmode count
attr source packetReceivedFromUpper
attr title "packets received from higher layer, count"
scalar CsmaCaNetwork.host[1].lo[0].lo rcvdPkFromHl:sum(packetBytes) 0
attr interpolationmode none
attr recordingmode sum(packetBytes)
attr source packetReceivedFromUpper
attr title "packets received from higher layer, sum(packetBytes)"
scalar CsmaCaNetwork.host[1].lo[0].lo passedUpPk:count 0
attr interpolationmode none
attr recordingmode count
attr source packetSentToUpper
attr title "packets passed to higher layer, count"
scalar CsmaCaNetwork.host[1].lo[0].lo passedUpPk:sum(packetBytes) 0
attr interpolationmode none
attr recordingmode sum(packetBytes)
attr source packetSentToUpper
attr title "packets passed to higher layer, sum(packetBytes)"
par CsmaCaNetwork.host[1].lo[0] typename "\"inet.linklayer.loopback.LoopbackInterface\""
par CsmaCaNetwork.host[1].lo[0] displayStringTextFormat "\"%a (%i)\\n%m\""
par CsmaCaNetwork.host[1].lo[0] recordPcap false
par CsmaCaNetwork.host[1].lo[0] numPcapRecorders 0
par CsmaCaNetwork.host[1].lo[0] interfaceTableModule "\"CsmaCaNetwork.host[1].interfaceTable\""
scalar CsmaCaNetwork.host[1].lo[0] packetDropInterfaceDown:count 0
attr interpolationmode none
attr recordingmode count
attr source packetDropReasonIsInterfaceDown(packetDropped)
attr title "packet drops: interface down, count"
scalar CsmaCaNetwork.host[1].lo[0] packetDropInterfaceDown:sum(packetBytes) 0
attr interpolationmode none
attr recordingmode sum(packetBytes)
attr source packetDropReasonIsInterfaceDown(packetDropped)
attr title "packet drops: interface down, sum(packetBytes)"
scalar CsmaCaNetwork.host[1].lo[0] packetDropNoCarrier:count 0
attr interpolationmode none
attr recordingmode count
attr source packetDropReasonIsNoCarrier(packetDropped)
attr title "packet drops: no carrier, count"
scalar CsmaCaNetwork.host[1].lo[0] packetDropNoCarrier:sum(packetBytes) 0
attr interpolationmode none
attr recordingmode sum(packetBytes)
attr source packetDropReasonIsNoCarrier(packetDropped)
attr title "packet drops: no carrier, sum(packetBytes)"
par CsmaCaNetwork.host[1].wlan[0].radioIn.channel typename "\"ned.IdealChannel\""
par CsmaCaNetwork.host[1].wlan[0].llc.upperLayerOut.channel typename "\"ned.IdealChannel\""
par CsmaCaNetwork.host[1].wlan[0].upperLayerIn.channel typename "\"ned.IdealChannel\""
par CsmaCaNetwork.host[1].wlan[0].mib typename "\"inet.linklayer.ieee80211.mib.Ieee80211Mib\""
par CsmaCaNetwork.host[1].wlan[0].llc typename "\"inet.linklayer.ieee80211.llc.Ieee80211LlcLpd\""
par CsmaCaNetwork.host[1].wlan[0].llc registerProtocol false
par CsmaCaNetwork.host[1].wlan[0].agent typename "\"inet.linklayer.ieee80211.mgmt.Ieee80211AgentSta\""
par CsmaCaNetwork.host[1].wlan[0].agent interfaceTableModule "\"CsmaCaNetwork.host[1].interfaceTable\""
par CsmaCaNetwork.host[1].wlan[0].agent mibModule "\"CsmaCaNetwork.host[1].wlan[0].mib\""
par CsmaCaNetwork.host[1].wlan[0].agent activeScan true
par CsmaCaNetwork.host[1].wlan[0].agent channelsToScan "\"\""
par CsmaCaNetwork.host[1].wlan[0].agent probeDelay 0.1s
attr unit s
par CsmaCaNetwork.host[1].wlan[0].agent minChannelTime 0.15s
attr unit s
par CsmaCaNetwork.host[1].wlan[0].agent maxChannelTime 0.3s
attr unit s
par CsmaCaNetwork.host[1].wlan[0].agent authenticationTimeout 5s
attr unit s
par CsmaCaNetwork.host[1].wlan[0].agent associationTimeout 5s
attr unit s
par CsmaCaNetwork.host[1].wlan[0].agent startingTime -1s
attr unit s
par CsmaCaNetwork.host[1].wlan[0].agent defaultSsid "\"SSID\""
scalar CsmaCaNetwork.host[1].wlan[0].agent dropConfirm:count 149
attr recordingmode count
attr title "dropped confirms, count"
scalar CsmaCaNetwork.host[1].wlan[0].agent acceptConfirm:count 0
attr recordingmode count
attr title "accepted confirms, count"
scalar CsmaCaNetwork.host[1].wlan[0].agent sentRequest:count 150
attr recordingmode count
attr title "sent requests, count"
par CsmaCaNetwork.host[1].wlan[0].mgmt typename "\"inet.linklayer.ieee80211.mgmt.Ieee80211MgmtSta\""
par CsmaCaNetwork.host[1].wlan[0].mgmt interfaceTableModule "\"CsmaCaNetwork.host[1].interfaceTable\""
par CsmaCaNetwork.host[1].wlan[0].mgmt numChannels 1
par CsmaCaNetwork.host[1].wlan[0].mgmt mibModule "\"CsmaCaNetwork.host[1].wlan[0].mib\""
par CsmaCaNetwork.host[1].wlan[0].mgmt macModule "\"CsmaCaNetwork.host[1].wlan[0].mac\""
par CsmaCaNetwork.host[1].wlan[0].mac.dcf.channelAccess.pendingQueue typename "\"inet.linklayer.ieee80211.mac.queue.PendingQueue\""
par CsmaCaNetwork.host[1].wlan[0].mac.dcf.channelAccess.pendingQueue displayStringTextFormat "\"contains %p pk (%l) pushed %u\\npulled %o removed %r dropped %d\""
par CsmaCaNetwork.host[1].wlan[0].mac.dcf.channelAccess.pendingQueue packetCapacity 100
par CsmaCaNetwork.host[1].wlan[0].mac.dcf.channelAccess.pendingQueue dataCapacity -1b
attr unit b
par CsmaCaNetwork.host[1].wlan[0].mac.dcf.channelAccess.pendingQueue dropperClass "\"inet::queueing::PacketAtCollectionEndDropper\""
par CsmaCaNetwork.host[1].wlan[0].mac.dcf.channelAccess.pendingQueue comparatorClass "\"inet::ieee80211::MgmtOverDataComparator\""
par CsmaCaNetwork.host[1].wlan[0].mac.dcf.channelAccess.pendingQueue bufferModule "\"\""
scalar CsmaCaNetwork.host[1].wlan[0].mac.dcf.channelAccess.pendingQueue queueLength:last 0
attr autoWarmupFilter false
attr interpolationmode sample-hold
attr recordingmode last
attr source "warmup(atomic(constant0(packetPushEnded) + count(packetPushStarted) - count(packetPulled) - count(packetRemoved) - count(packetDropped)))"
attr title "queue length, last"
attr unit pk
scalar CsmaCaNetwork.host[1].wlan[0].mac.dcf.channelAccess.pendingQueue queueLength:max 1
attr autoWarmupFilter false
attr interpolationmode sample-hold
attr recordingmode max
attr source "warmup(atomic(constant0(packetPushEnded) + count(packetPushStarted) - count(packetPulled) - count(packetRemoved) - count(packetDropped)))"
attr title "queue length, max"
attr unit pk
scalar CsmaCaNetwork.host[1].wlan[0].mac.dcf.channelAccess.pendingQueue queueLength:timeavg 0
attr autoWarmupFilter false
attr interpolationmode sample-hold
attr recordingmode timeavg
attr source "warmup(atomic(constant0(packetPushEnded) + count(packetPushStarted) - count(packetPulled) - count(packetRemoved) - count(packetDropped)))"
attr title "queue length, timeavg"
attr unit pk
scalar CsmaCaNetwork.host[1].wlan[0].mac.dcf.channelAccess.pendingQueue queueBitLength:last 0
attr autoWarmupFilter false
attr interpolationmode sample-hold
attr recordingmode last
attr source "warmup(atomic(constant0(packetPushEnded) + sum(packetLength(packetPushStarted)) - sum(packetLength(packetPulled)) - sum(packetLength(packetRemoved)) - sum(packetLength(packetDropped))))"
attr title "queue bit length, last"
attr unit b
scalar CsmaCaNetwork.host[1].wlan[0].mac.dcf.channelAccess.pendingQueue queueBitLength:max 256
attr autoWarmupFilter false
attr interpolationmode sample-hold
attr recordingmode max
attr source "warmup(atomic(constant0(packetPushEnded) + sum(packetLength(packetPushStarted)) - sum(packetLength(packetPulled)) - sum(packetLength(packetRemoved)) - sum(packetLength(packetDropped))))"
attr title "queue bit length, max"
attr unit b
scalar CsmaCaNetwork.host[1].wlan[0].mac.dcf.channelAccess.pendingQueue queueBitLength:timeavg 0
attr autoWarmupFilter false
attr interpolationmode sample-hold
attr recordingmode timeavg
attr source "warmup(atomic(constant0(packetPushEnded) + sum(packetLength(packetPushStarted)) - sum(packetLength(packetPulled)) - sum(packetLength(packetRemoved)) - sum(packetLength(packetDropped))))"
attr title "queue bit length, timeavg"
attr unit b
statistic CsmaCaNetwork.host[1].wlan[0].mac.dcf.channelAccess.pendingQueue queueingTime:histogram
field count 150
field mean 0
field stddev 0
field min 0
field max 0
field sum 0
field sqrsum 0
attr interpolationmode none
attr recordingmode histogram
attr source queueingTime(packetPulled)
attr title "queueing times"
attr unit s
bin	-inf	0
bin	-0.5	0
bin	-0.48	0
bin	-0.46	0
bin	-0.44	0
bin	-0.42	0
bin	-0.4	0
bin	-0.38	0
bin	-0.36	0
bin	-0.34	0
bin	-0.32	0
bin	-0.3	0
bin	-0.28	0
bin	-0.26	0
bin	-0.24	0
bin	-0.22	0
bin	-0.2	0
bin	-0.18	0
bin	-0.16	0
bin	-0.14	0
bin	-0.12	0
bin	-0.1	0
bin	-0.08	0
bin	-0.06	0
bin	-0.04	0
bin	-0.02	0
bin	0	150
bin	0.02	0
bin	0.04	0
bin	0.06	0
bin	0.08	0
bin	0.1	0
bin	0.12	0
bin	0.14	0
bin	0.16	0
bin	0.18	0
bin	0.2	0
bin	0.22	0
bin	0.24	0
bin	0.26	0
bin	0.28	0
bin	0.3	0
bin	0.32	0
bin	0.34	0
bin	0.36	0
bin	0.38	0
bin	0.4	0
bin	0.42	0
bin	0.44	0
bin	0.46	0
bin	0.48	0
bin	0.5	0
scalar CsmaCaNetwork.host[1].wlan[0].mac.dcf.channelAccess.pendingQueue outgoingPackets:count 150
attr recordingmode count
attr source packetPulled
attr title "outgoing packets, count"
attr unit pk
scalar CsmaCaNetwork.host[1].wlan[0].mac.dcf.channelAccess.pendingQueue outgoingPacketLengths:sum 38400
attr interpolationmode none
attr recordingmode sum
attr source packetLength(packetPulled)
attr title "outgoing packet lengths, sum"
attr unit b
statistic CsmaCaNetwork.host[1].wlan[0].mac.dcf.channelAccess.pendingQueue outgoingPacketLengths:histogram
[...]
par CsmaCaNetwork.host[4].wlan[0].radio crcMode "\"declared\""
attr enum declared,computed
statistic CsmaCaNetwork.host[4].wlan[0].radio radioChannel:histogram
field count 151
field mean 0
field stddev 0
field min 0
field max 0
field sum 0
field sqrsum 0
attr interpolationmode sample-hold
attr recordingmode histogram
attr source radioChannelChanged
attr title "Radio channel"
bin	-inf	0
bin	-0.5	0
bin	-0.48	0
bin	-0.46	0
bin	-0.44	0
bin	-0.42	0
bin	-0.4	0
bin	-0.38	0
bin	-0.36	0
bin	-0.34	0
bin	-0.32	0
bin	-0.3	0
bin	-0.28	0
bin	-0.26	0
bin	-0.24	0
bin	-0.22	0
bin	-0.2	0
bin	-0.18	0
bin	-0.16	0
bin	-0.14	0
bin	-0.12	0
bin	-0.1	0
bin	-0.08	0
bin	-0.06	0
bin	-0.04	0
bin	-0.02	0
bin	0	151
bin	0.02	0
bin	0.04	0
bin	0.06	0
bin	0.08	0
bin	0.1	0
bin	0.12	0
bin	0.14	0
bin	0.16	0
bin	0.18	0
bin	0.2	0
bin	0.22	0
bin	0.24	0
bin	0.26	0
bin	0.28	0
bin	0.3	0
bin	0.32	0
bin	0.34	0
bin	0.36	0
bin	0.38	0
bin	0.4	0
bin	0.42	0
bin	0.44	0
bin	0.46	0
bin	0.48	0
bin	0.5	0
scalar CsmaCaNetwork.host[4].wlan[0].radio radioMode:count 303
attr interpolationmode sample-hold
attr recordingmode count
attr source radioModeChanged
attr title "Radio mode, count"
scalar CsmaCaNetwork.host[4].wlan[0].radio receptionState:count 1501
attr interpolationmode sample-hold
attr recordingmode count
attr source receptionStateChanged
attr title "Radio reception state, count"
scalar CsmaCaNetwork.host[4].wlan[0].radio transmissionState:count 600
attr interpolationmode sample-hold
attr recordingmode count
attr source transmissionStateChanged
attr title "Radio transmission state, count"
statistic CsmaCaNetwork.host[4].wlan[0].radio minSnir:histogram
field count 600
field mean 2000000000000
field stddev 0
field min 2000000000000
field max 2000000000000
field sum 1.2e+15
field sqrsum 2.4e+27
attr recordingmode histogram
attr source minimumSnir(packetSentToUpper)
attr title "Min SNIR"
bin	-inf	0
bin	1999999999999	0
bin	2000000000000	600
bin	2000000000001	0
statistic CsmaCaNetwork.host[4].wlan[0].radio packetErrorRate:histogram
field count 600
field mean 0
field stddev 0
field min 0
field max 0
field sum 0
field sqrsum 0
attr recordingmode histogram
attr source packetErrorRate(packetSentToUpper)
attr title "Packet error rate"
bin	-inf	0
bin	-0.5	0
bin	-0.48	0
bin	-0.46	0
bin	-0.44	0
bin	-0.42	0
bin	-0.4	0
bin	-0.38	0
bin	-0.36	0
bin	-0.34	0
bin	-0.32	0
bin	-0.3	0
bin	-0.28	0
bin	-0.26	0
bin	-0.24	0
bin	-0.22	0
bin	-0.2	0
bin	-0.18	0
bin	-0.16	0
bin	-0.14	0
bin	-0.12	0
bin	-0.1	0
bin	-0.08	0
bin	-0.06	0
bin	-0.04	0
bin	-0.02	0
bin	0	600
bin	0.02	0
bin	0.04	0
bin	0.06	0
bin	0.08	0
bin	0.1	0
bin	0.12	0
bin	0.14	0
bin	0.16	0
bin	0.18	0
bin	0.2	0
bin	0.22	0
bin	0.24	0
bin	0.26	0
bin	0.28	0
bin	0.3	0
bin	0.32	0
bin	0.34	0
bin	0.36	0
bin	0.38	0
bin	0.4	0
bin	0.42	0
bin	0.44	0
bin	0.46	0
bin	0.48	0
bin	0.5	0
statistic CsmaCaNetwork.host[4].wlan[0].radio bitErrorRate:histogram
field count 0
field mean -nan
field stddev nan
field min nan
field max nan
field sum 0
field sqrsum 0
attr recordingmode histogram
attr source bitErrorRate(packetSentToUpper)
attr title "Bit error rate"
bin	-inf	0
bin	0	0
bin	1	0
statistic CsmaCaNetwork.host[4].wlan[0].radio symbolErrorRate:histogram
field count 0
field mean -nan
field stddev nan
field min nan
field max nan
field sum 0
field sqrsum 0
attr recordingmode histogram
attr source symbolErrorRate(packetSentToUpper)
attr title "Symbol error rate"
bin	-inf	0
bin	0	0
bin	1	0
par CsmaCaNetwork.host[4].wlan[0] typename "\"inet.linklayer.ieee80211.Ieee80211Interface\""
par CsmaCaNetwork.host[4].wlan[0] displayStringTextFormat "\"%a (%i)\\n%m\""
par CsmaCaNetwork.host[4].wlan[0] recordPcap false
par CsmaCaNetwork.host[4].wlan[0] numPcapRecorders 0
par CsmaCaNetwork.host[4].wlan[0] interfaceTableModule "\"CsmaCaNetwork.host[4].interfaceTable\""
par CsmaCaNetwork.host[4].wlan[0] energySourceModule "\"\""
par CsmaCaNetwork.host[4].wlan[0] opMode "\"g(mixed)\""
attr enum a,b,g(erp),g(mixed),n(mixed-2.4Ghz),p,ac
par CsmaCaNetwork.host[4].wlan[0] address "\"0A-AA-00-00-00-05\""
attr mutable ""
par CsmaCaNetwork.host[4].wlan[0] protocol "\"\""
par CsmaCaNetwork.host[4].wlan[0] bitrate -1bps
attr unit bps
scalar CsmaCaNetwork.host[4].wlan[0] packetDropInterfaceDown:count 0
attr interpolationmode none
attr recordingmode count
attr source packetDropReasonIsInterfaceDown(packetDropped)
attr title "packet drops: interface down, count"
scalar CsmaCaNetwork.host[4].wlan[0] packetDropInterfaceDown:sum(packetBytes) 0
attr interpolationmode none
attr recordingmode sum(packetBytes)
attr source packetDropReasonIsInterfaceDown(packetDropped)
attr title "packet drops: interface down, sum(packetBytes)"
scalar CsmaCaNetwork.host[4].wlan[0] packetDropNoCarrier:count 0
attr interpolationmode none
attr recordingmode count
attr source packetDropReasonIsNoCarrier(packetDropped)
attr title "packet drops: no carrier, count"
scalar CsmaCaNetwork.host[4].wlan[0] packetDropNoCarrier:sum(packetBytes) 0
attr interpolationmode none
attr recordingmode sum(packetBytes)
attr source packetDropReasonIsNoCarrier(packetDropped)
attr title "packet drops: no carrier, sum(packetBytes)"
par CsmaCaNetwork.host[4].ipv4.transportIn.channel typename "\"ned.IdealChannel\""
par CsmaCaNetwork.host[4].ipv4.up.out[0].channel typename "\"ned.IdealChannel\""
par CsmaCaNetwork.host[4].ipv4.lp.out[2].channel typename "\"ned.IdealChannel\""
par CsmaCaNetwork.host[4].ipv4.ifIn.channel typename "\"ned.IdealChannel\""
par CsmaCaNetwork.host[4].ipv4.configurator typename "\"inet.networklayer.configurator.ipv4.Ipv4NodeConfigurator\""
par CsmaCaNetwork.host[4].ipv4.configurator interfaceTableModule "\"CsmaCaNetwork.host[4].interfaceTable\""
par CsmaCaNetwork.host[4].ipv4.configurator routingTableModule "\"CsmaCaNetwork.host[4].ipv4.routingTable\""
par CsmaCaNetwork.host[4].ipv4.configurator networkConfiguratorModule "\"configurator\""
par CsmaCaNetwork.host[4].ipv4.configurator configureRoutingTable true
par CsmaCaNetwork.host[4].ipv4.routingTable typename "\"inet.networklayer.ipv4.Ipv4RoutingTable\""
par CsmaCaNetwork.host[4].ipv4.routingTable interfaceTableModule "\"CsmaCaNetwork.host[4].interfaceTable\""
par CsmaCaNetwork.host[4].ipv4.routingTable routerId "\"auto\""
par CsmaCaNetwork.host[4].ipv4.routingTable netmaskRoutes "\"*\""
par CsmaCaNetwork.host[4].ipv4.routingTable forwarding false
par CsmaCaNetwork.host[4].ipv4.routingTable multicastForwarding false
par CsmaCaNetwork.host[4].ipv4.routingTable useAdminDist false
par CsmaCaNetwork.host[4].ipv4.routingTable routingFile "\"\""
par CsmaCaNetwork.host[4].ipv4.natTable typename "\"inet.networklayer.ipv4.Ipv4NatTable\""
par CsmaCaNetwork.host[4].ipv4.natTable networkProtocolModule "\"^.ip\""
par CsmaCaNetwork.host[4].ipv4.natTable config "<config/> at content:1"
par CsmaCaNetwork.host[4].ipv4.up typename "\"inet.common.MessageDispatcher\""
par CsmaCaNetwork.host[4].ipv4.up displayStringTextFormat "\"processed %p pk (%l)\""
par CsmaCaNetwork.host[4].ipv4.up forwardServiceRegistration true
par CsmaCaNetwork.host[4].ipv4.up forwardProtocolRegistration true
par CsmaCaNetwork.host[4].ipv4.igmp typename "\"inet.networklayer.ipv4.Igmpv2\""
par CsmaCaNetwork.host[4].ipv4.igmp interfaceTableModule "\"CsmaCaNetwork.host[4].interfaceTable\""
par CsmaCaNetwork.host[4].ipv4.igmp routingTableModule "\"CsmaCaNetwork.host[4].ipv4.routingTable\""
par CsmaCaNetwork.host[4].ipv4.igmp crcMode "\"declared\""
attr enum declared,computed
par CsmaCaNetwork.host[4].ipv4.igmp enabled true
par CsmaCaNetwork.host[4].ipv4.igmp robustnessVariable 2
par CsmaCaNetwork.host[4].ipv4.igmp queryInterval 125s
attr unit s
par CsmaCaNetwork.host[4].ipv4.igmp queryResponseInterval 10s
attr unit s
par CsmaCaNetwork.host[4].ipv4.igmp groupMembershipInterval 260s
attr unit s
par CsmaCaNetwork.host[4].ipv4.igmp otherQuerierPresentInterval 255s
attr unit s
par CsmaCaNetwork.host[4].ipv4.igmp startupQueryInterval 31.25s
attr unit s
par CsmaCaNetwork.host[4].ipv4.igmp startupQueryCount 2
par CsmaCaNetwork.host[4].ipv4.igmp lastMemberQueryInterval 1s
attr unit s
par CsmaCaNetwork.host[4].ipv4.igmp lastMemberQueryCount 2
par CsmaCaNetwork.host[4].ipv4.igmp unsolicitedReportInterval 10s
attr unit s
par CsmaCaNetwork.host[4].ipv4.icmp typename "\"inet.networklayer.ipv4.Icmp\""
par CsmaCaNetwork.host[4].ipv4.icmp interfaceTableModule "\"CsmaCaNetwork.host[4].interfaceTable\""
par CsmaCaNetwork.host[4].ipv4.icmp routingTableModule "\"CsmaCaNetwork.host[4].ipv4.routingTable\""
par CsmaCaNetwork.host[4].ipv4.icmp crcMode "\"declared\""
attr enum declared,computed
attr mutable ""
par CsmaCaNetwork.host[4].ipv4.icmp quoteLength 8B
attr mutable ""
attr unit B
par CsmaCaNetwork.host[4].ipv4.mp typename "\"inet.common.MessageDispatcher\""
par CsmaCaNetwork.host[4].ipv4.mp displayStringTextFormat "\"processed %p pk (%l)\""
par CsmaCaNetwork.host[4].ipv4.mp forwardServiceRegistration true
par CsmaCaNetwork.host[4].ipv4.mp forwardProtocolRegistration true
par CsmaCaNetwork.host[4].ipv4.ip typename "\"inet.networklayer.ipv4.Ipv4\""
par CsmaCaNetwork.host[4].ipv4.ip interfaceTableModule "\"CsmaCaNetwork.host[4].interfaceTable\""
par CsmaCaNetwork.host[4].ipv4.ip routingTableModule "\"CsmaCaNetwork.host[4].ipv4.routingTable\""
par CsmaCaNetwork.host[4].ipv4.ip arpModule "\"CsmaCaNetwork.host[4].ipv4.arp\""
par CsmaCaNetwork.host[4].ipv4.ip icmpModule "\"CsmaCaNetwork.host[4].ipv4.icmp\""
par CsmaCaNetwork.host[4].ipv4.ip crcMode "\"declared\""
attr enum declared,computed
par CsmaCaNetwork.host[4].ipv4.ip timeToLive 32
par CsmaCaNetwork.host[4].ipv4.ip multicastTimeToLive 32
par CsmaCaNetwork.host[4].ipv4.ip fragmentTimeout 60s
attr unit s
par CsmaCaNetwork.host[4].ipv4.ip limitedBroadcast false
par CsmaCaNetwork.host[4].ipv4.ip directBroadcastInterfaces "\"\""
scalar CsmaCaNetwork.host[4].ipv4.ip packetDropAddressResolutionFailed:count 0
attr interpolationmode none
attr recordingmode count
attr source packetDropReasonIsAddressResolutionFailed(packetDropped)
attr title "packet drop: address resolution failed, count"
scalar CsmaCaNetwork.host[4].ipv4.ip packetDropAddressResolutionFailed:sum(packetBytes) 0
attr interpolationmode none
attr recordingmode sum(packetBytes)
attr source packetDropReasonIsAddressResolutionFailed(packetDropped)
attr title "packet drop: address resolution failed, sum(packetBytes)"
scalar CsmaCaNetwork.host[4].ipv4.ip packetDropHopLimitReached:count 0
attr interpolationmode none
attr recordingmode count
attr source packetDropReasonIsHopLimitReached(packetDropped)
attr title "packet drop: hop limit reached, count"
scalar CsmaCaNetwork.host[4].ipv4.ip packetDropHopLimitReached:sum(packetBytes) 0
attr interpolationmode none
attr recordingmode sum(packetBytes)
attr source packetDropReasonIsHopLimitReached(packetDropped)
attr title "packet drop: hop limit reached, sum(packetBytes)"
scalar CsmaCaNetwork.host[4].ipv4.ip packetDropForwardingDisabled:count 0
attr interpolationmode none
attr recordingmode count
attr source packetDropReasonIsForwardingDisabled(packetDropped)
attr title "packet drop: forwarding disabled, count"
scalar CsmaCaNetwork.host[4].ipv4.ip packetDropForwardingDisabled:sum(packetBytes) 0
attr interpolationmode none
attr recordingmode sum(packetBytes)
attr source packetDropReasonIsForwardingDisabled(packetDropped)
attr title "packet drop: forwarding disabled, sum(packetBytes)"
scalar CsmaCaNetwork.host[4].ipv4.ip packetDropNoInterfaceFound:count 0
attr interpolationmode none
attr recordingmode count
attr source packetDropReasonIsNoInterfaceFound(packetDropped)
attr title "packet drop: no interface found, count"
scalar CsmaCaNetwork.host[4].ipv4.ip packetDropNoInterfaceFound:sum(packetBytes) 0
attr interpolationmode none
attr recordingmode sum(packetBytes)
attr source packetDropReasonIsNoInterfaceFound(packetDropped)
attr title "packet drop: no interface found, sum(packetBytes)"
scalar CsmaCaNetwork.host[4].ipv4.ip packetDropNoRouteFound:count 0
attr interpolationmode none
attr recordingmode count
attr source packetDropReasonIsNoRouteFound(packetDropped)
attr title "packet drop: no route found, count"
scalar CsmaCaNetwork.host[4].ipv4.ip packetDropNoRouteFound:sum(packetBytes) 0
attr interpolationmode none
attr recordingmode sum(packetBytes)
attr source packetDropReasonIsNoRouteFound(packetDropped)
attr title "packet drop: no route found, sum(packetBytes)"
scalar CsmaCaNetwork.host[4].ipv4.ip packetDropUndefined:count 0
attr interpolationmode none
attr recordingmode count
attr source packetDropReasonIsUndefined(packetDropped)
attr title "packet drop: undefined, count"
scalar CsmaCaNetwork.host[4].ipv4.ip packetDropUndefined:sum(packetBytes) 0
attr interpolationmode none
attr recordingmode sum(packetBytes)
attr source packetDropReasonIsUndefined(packetDropped)
attr title "packet drop: undefined, sum(packetBytes)"
par CsmaCaNetwork.host[4].ipv4.arp typename "\"inet.networklayer.arp.ipv4.Arp\""
par CsmaCaNetwork.host[4].ipv4.arp interfaceTableModule "\"CsmaCaNetwork.host[4].interfaceTable\""
par CsmaCaNetwork.host[4].ipv4.arp routingTableModule "\"CsmaCaNetwork.host[4].ipv4.routingTable\""
par CsmaCaNetwork.host[4].ipv4.arp retryTimeout 1s
attr unit s
par CsmaCaNetwork.host[4].ipv4.arp retryCount 3
par CsmaCaNetwork.host[4].ipv4.arp cacheTimeout 120s
attr unit s
par CsmaCaNetwork.host[4].ipv4.arp proxyArpInterfaces "\"\""
scalar CsmaCaNetwork.host[4].ipv4.arp arpResolutionFailed:count 0
attr recordingmode count
attr title "ARP failed resolutions, count"
scalar CsmaCaNetwork.host[4].ipv4.arp arpResolutionCompleted:count 0
attr recordingmode count
attr title "ARP completed resolutions, count"
scalar CsmaCaNetwork.host[4].ipv4.arp arpResolutionInitiated:count 0
attr recordingmode count
attr title "ARP initiated resolutions, count"
scalar CsmaCaNetwork.host[4].ipv4.arp arpReplySent:count 0
attr recordingmode count
attr source arpReplySent
attr title "ARP replies sent, count"
scalar CsmaCaNetwork.host[4].ipv4.arp arpReplySent:sum(packetBytes) 0
attr recordingmode sum(packetBytes)
attr source arpReplySent
attr title "ARP replies sent, sum(packetBytes)"
scalar CsmaCaNetwork.host[4].ipv4.arp arpRequestSent:count 0
attr recordingmode count
attr source arpRequestSent
attr title "ARP request sent, count"
scalar CsmaCaNetwork.host[4].ipv4.arp arpRequestSent:sum(packetBytes) 0
attr recordingmode sum(packetBytes)
attr source arpRequestSent
attr title "ARP request sent, sum(packetBytes)"
par CsmaCaNetwork.host[4].ipv4.lp typename "\"inet.common.MessageDispatcher\""
par CsmaCaNetwork.host[4].ipv4.lp displayStringTextFormat "\"processed %p pk (%l)\""
par CsmaCaNetwork.host[4].ipv4.lp forwardServiceRegistration true
par CsmaCaNetwork.host[4].ipv4.lp forwardProtocolRegistration true
par CsmaCaNetwork.host[4].ipv4 typename "\"inet.networklayer.ipv4.Ipv4NetworkLayer\""
par CsmaCaNetwork.host[4].ipv4 forwarding false
par CsmaCaNetwork.host[4].ipv4 multicastForwarding false
par CsmaCaNetwork.host[4].ipv4 interfaceTableModule "\"CsmaCaNetwork.host[4].interfaceTable\""
par CsmaCaNetwork.host[4].ipv4 displayStringTextFormat "\"%i\""
par CsmaCaNetwork.host[4].nl typename "\"inet.common.MessageDispatcher\""
par CsmaCaNetwork.host[4].nl displayStringTextFormat "\"processed %p pk (%l)\""
par CsmaCaNetwork.host[4].nl forwardServiceRegistration true
par CsmaCaNetwork.host[4].nl forwardProtocolRegistration true
par CsmaCaNetwork.host[4].udp typename "\"inet.transportlayer.udp.Udp\""
par CsmaCaNetwork.host[4].udp interfaceTableModule "\"CsmaCaNetwork.host[4].interfaceTable\""
par CsmaCaNetwork.host[4].udp icmpModule "\"^.ipv4.icmp\""
par CsmaCaNetwork.host[4].udp icmpv6Module "\"^.ipv6.icmpv6\""
par CsmaCaNetwork.host[4].udp crcMode "\"declared\""
attr enum disabled,declared,computed
par CsmaCaNetwork.host[4].udp defaultMulticastLoop true
scalar CsmaCaNetwork.host[4].udp packetReceived:count 0
attr interpolationmode none
attr recordingmode count
attr source packetReceived
attr title "packets received, count"
scalar CsmaCaNetwork.host[4].udp packetReceived:sum(packetBytes) 0
attr interpolationmode none
attr recordingmode sum(packetBytes)
attr source packetReceived
attr title "packets received, sum(packetBytes)"
scalar CsmaCaNetwork.host[4].udp packetSent:count 0
attr interpolationmode none
attr recordingmode count
attr source packetSent
attr title "packets sent, count"
scalar CsmaCaNetwork.host[4].udp packetSent:sum(packetBytes) 0
attr interpolationmode none
attr recordingmode sum(packetBytes)
attr source packetSent
attr title "packets sent, sum(packetBytes)"
scalar CsmaCaNetwork.host[4].udp passedUpPk:count 0
attr interpolationmode none
attr recordingmode count
attr source packetSentToUpper
attr title "packets passed up, count"
scalar CsmaCaNetwork.host[4].udp droppedPkWrongPort:count 0
attr interpolationmode none
attr recordingmode count
attr source packetDropReasonIsNoPortFound(packetDropped)
attr title "packets dropped (wrong port), count"
scalar CsmaCaNetwork.host[4].udp droppedPkBadChecksum:count 0
attr interpolationmode none
attr recordingmode count
attr source packetDropReasonIsIncorrectlyReceived(packetDropped)
attr title "packets dropped (checksum error), count"
par CsmaCaNetwork.host[4].tcp typename "\"inet.transportlayer.tcp.Tcp\""
par CsmaCaNetwork.host[4].tcp crcMode "\"declared\""
attr enum declared,computed
par CsmaCaNetwork.host[4].tcp advertisedWindow 7504
par CsmaCaNetwork.host[4].tcp delayedAcksEnabled false
par CsmaCaNetwork.host[4].tcp nagleEnabled true
par CsmaCaNetwork.host[4].tcp limitedTransmitEnabled false
par CsmaCaNetwork.host[4].tcp increasedIWEnabled false
par CsmaCaNetwork.host[4].tcp sackSupport false
par CsmaCaNetwork.host[4].tcp windowScalingSupport false
par CsmaCaNetwork.host[4].tcp windowScalingFactor -1
par CsmaCaNetwork.host[4].tcp timestampSupport false
par CsmaCaNetwork.host[4].tcp mss 536
par CsmaCaNetwork.host[4].tcp msl 120s
attr unit s
par CsmaCaNetwork.host[4].tcp tcpAlgorithmClass "\"TcpReno\""
par CsmaCaNetwork.host[4].tcp useDataNotification false
par CsmaCaNetwork.host[4].tcp dupthresh 3
par CsmaCaNetwork.host[4].tcp initialSsthresh 4294967295
par CsmaCaNetwork.host[4].tcp stopOperationExtraTime 0s
attr unit s
par CsmaCaNetwork.host[4].tcp stopOperationTimeout 2s
attr unit s
par CsmaCaNetwork.host[4].tcp ecnWillingness false
par CsmaCaNetwork.host[4].tcp dctcpGamma 0.0625
par CsmaCaNetwork.host[4].tn typename "\"inet.common.MessageDispatcher\""
par CsmaCaNetwork.host[4].tn displayStringTextFormat "\"processed %p pk (%l)\""
par CsmaCaNetwork.host[4].tn forwardServiceRegistration true
par CsmaCaNetwork.host[4].tn forwardProtocolRegistration true
par CsmaCaNetwork.host[4].at typename "\"inet.common.MessageDispatcher\""
par CsmaCaNetwork.host[4].at displayStringTextFormat "\"processed %p pk (%l)\""
par CsmaCaNetwork.host[4].at forwardServiceRegistration true
par CsmaCaNetwork.host[4].at forwardProtocolRegistration true
par CsmaCaNetwork.host[4] typename "\"inet.node.inet.WirelessHost\""
par CsmaCaNetwork.host[4] hasStatus false
par CsmaCaNetwork.host[4] osgModel "\"\""
par CsmaCaNetwork.host[4] osgModelColor "\"\""
par CsmaCaNetwork.host[4] canvasImage "\"\""
par CsmaCaNetwork.host[4] canvasImageColor "\"\""
par CsmaCaNetwork.host[4] recordPcap false
par CsmaCaNetwork.host[4] numPcapRecorders 0
par CsmaCaNetwork.host[4] numLoInterfaces 1
par CsmaCaNetwork.host[4] numWlanInterfaces 1
par CsmaCaNetwork.host[4] numEthInterfaces 0
par CsmaCaNetwork.host[4] numPppInterfaces 0
par CsmaCaNetwork.host[4] numTunInterfaces 0
par CsmaCaNetwork.host[4] numVirtInterfaces 0
par CsmaCaNetwork.host[4] fcsMode "\"declared\""
attr enum declared,computed
par CsmaCaNetwork.host[4] hasIpv4 true
par CsmaCaNetwork.host[4] hasIpv6 false
par CsmaCaNetwork.host[4] hasGn false
par CsmaCaNetwork.host[4] forwarding false
par CsmaCaNetwork.host[4] multicastForwarding false
par CsmaCaNetwork.host[4] hasUdp true
par CsmaCaNetwork.host[4] hasTcp true
par CsmaCaNetwork.host[4] hasSctp false
par CsmaCaNetwork.host[4] numApps 0
par CsmaCaNetwork typename "\"csma_ca.CsmaCaNetwork\""
par CsmaCaNetwork numNodes 5

